3
Generated trajectory
Li      1.065136263269273      1.013550338209893      1.033176905271488
Li      1.962422187695180      2.021747783586332      2.050456051501924
Li      3.025081488059191      2.956907741260989      2.977280450126042
3
Generated trajectory
Li      0.977937235367625      1.012677171292180      0.990260113692838
Li      1.927917273314223      1.963808207752337      1.981227157649599
Li      3.028910703392921      2.999422891183021      3.098578020745311
3
Generated trajectory
Li      0.943697275616625      0.975651380832267      1.015297372062089
Li      2.042699499199277      1.930114569682765      1.916551424220689
Li      2.961614495712808      3.041201293218588      2.952921253049417
3
Generated trajectory
Li      0.963334644630664      0.992021545076837      1.061228692417379
Li      2.090177050001739      1.930003404080359      1.881124003788166
Li      2.965665156942058      2.991049042578746      3.029549199696609
3
Generated trajectory
Li      1.050000862096347      1.018321659372529      0.944377749399121
Li      1.899493078426343      2.066440283949547      2.010751165816974
Li      3.036993944709891      2.988877912056027      2.943744729156117
3
Generated trajectory
Li      0.954714863169948      0.973188958014378      0.963592574167204
Li      1.950417108515063      2.040761081225656      1.954317017441748
Li      2.986480979737909      3.012851023636750      2.968293520980821
3
Generated trajectory
Li      0.952821371276392      1.009990379012096      0.990414805213609
Li      1.992000760015851      2.009765897844083      1.997147919442779
Li      2.923035382131292      3.047859045414655      2.991838005446494
3
Generated trajectory
Li      0.980919209668018      1.044467399235335      1.037491192139777
Li      2.074756168564909      1.972067164416026      1.938100939051711
Li      2.932900419266409      2.954359561220141      2.975006760440182
3
Generated trajectory
Li      0.973453649423376      1.052616948706035      1.055753863621741
Li      2.002777187385603      1.946476516389327      1.893973739498929
Li      3.039409281017077      3.039116150579332      2.974650365703988
3
Generated trajectory
Li      0.929789240856239      1.038766967248913      0.940254710564647
Li      1.981544444205660      1.978551678570208      1.901205868986892
Li      2.890644657677943      2.893957972856782      2.910521078349986
3
Generated trajectory
Li      0.945712156002388      0.967839242207199      1.115386037642411
Li      2.021924792574318      1.940310789202658      1.937173435510068
Li      2.914892203253245      2.930948030879933      2.877760136547538
3
Generated trajectory
Li      1.036251622287465      0.891862687812238      0.937076522317071
Li      2.003590629898735      1.870662412068355      1.898224978853295
Li      2.899990157028241      2.994886820485023      2.828068190312500
3
Generated trajectory
Li      1.022178059229542      0.958285793382377      0.917588067795388
Li      1.972111967373400      1.935193128106073      1.848473072828360
Li      2.916150616275865      2.875971033800449      2.860337071566398
3
Generated trajectory
Li      0.975187951037964      1.002220734191653      0.985403573167107
Li      1.989446494402045      1.889198229018332      1.884044105252717
Li      2.832231623980399      2.929292459139711      2.793237371805075
3
Generated trajectory
Li      1.025675886733000      0.955885340132314      0.921704900241015
Li      2.081341122744850      1.896560549159849      1.857192600951714
Li      2.800906230423808      2.930134256011600      2.861149831323778
3
Generated trajectory
Li      1.052356128080478      0.813798827837984      0.993300498421746
Li      2.019756865421840      1.945607742292304      1.715185968725361
Li      2.897168766334179      2.903048313393966      2.813244545792318
3
Generated trajectory
Li      1.015620109749067      0.912091215928991      0.997236748885229
Li      2.016688670986343      1.875405072385408      1.773745694257104
Li      2.719071579692106      2.869600554608220      2.662860569540555
3
Generated trajectory
Li      0.982661520545007      0.919672961376792      0.978954543007449
Li      1.971314509420898      1.822932618395942      1.687105054927622
Li      2.677426436300140      2.744861081235833      2.654370026230167
3
Generated trajectory
Li      0.961714576318848      0.781574517133269      0.982987954047475
Li      2.049123306749153      1.875038765200466      1.760277096066945
Li      2.661554260451186      2.778512915598335      2.758644202315204
3
Generated trajectory
Li      0.881601818403093      0.836412272938082      1.016895131897943
Li      2.014165469938587      1.830450060853801      1.552589416796522
Li      2.718936051371738      2.785732805389871      2.589348610888103
3
Generated trajectory
Li      0.886040163126223      0.827236488327971      1.043583273734593
Li      1.926166787774511      1.755380065864889      1.597849247514852
Li      2.638246894803669      2.738294181144049      2.676791560808437
3
Generated trajectory
Li      0.905431110888098      0.825001404519666      1.036471726324010
Li      2.019569230567980      1.728876851723886      1.537048105538799
Li      2.507006902950679      2.727900983397037      2.634261614546928
3
Generated trajectory
Li      0.884107569748033      0.791108405057633      0.962212956590632
Li      2.032710098027597      1.789302540401131      1.513133850820271
Li      2.611686841762481      2.776392373830214      2.585062354038252
3
Generated trajectory
Li      0.880043926033271      0.751590752521236      0.955761067227122
Li      1.929523618726619      1.851335860711130      1.451881251896061
Li      2.418163776178567      2.741727861042834      2.531505362973768
3
Generated trajectory
Li      1.006107977176973      0.796829418108913      1.021899294775053
Li      1.966320220973411      1.737960937226164      1.408748260841702
Li      2.472864307933761      2.644238651575993      2.430288889342725
3
Generated trajectory
Li      0.925408714136445      0.704436871970082      0.972338560634487
Li      1.965603482240054      1.708004313697513      1.424962236880754
Li      2.424576976341243      2.654899656124226      2.452793480845452
3
Generated trajectory
Li      0.965610355353437      0.783418445019156      0.986098440378448
Li      1.990877150812170      1.738532783068145      1.427274223134457
Li      2.405718622034535      2.636869553289243      2.366104274614200
3
Generated trajectory
Li      0.954946923705248      0.692426002161599      1.010991870205475
Li      1.915749249219797      1.576321213137042      1.296390946753087
Li      2.387672612818864      2.632428277445992      2.393654884079839
3
Generated trajectory
Li      0.984584578397982      0.617819259134659      0.910341466230185
Li      2.059378567340111      1.642950609959356      1.279127880857562
Li      2.235853301938564      2.700146890811975      2.348196963410238
3
Generated trajectory
Li      1.037116565634899      0.482500180288248      0.926937797087406
Li      1.932839984264938      1.609554350546227      1.259859071931186
Li      2.354935790307463      2.654227879648091      2.276261919456313
3
Generated trajectory
Li      0.888688785534704      0.585195996166333      0.917724347229941
Li      2.001364370067854      1.528726734828934      1.112364359878806
Li      2.208357364120065      2.601156591789746      2.233067337118070
3
Generated trajectory
Li      0.796355863859607      0.538851856321390      0.928512685636314
Li      2.059940811948771      1.422755977424920      1.039393839502497
Li      2.165175871778747      2.513378895709764      2.110656753707322
3
Generated trajectory
Li      0.859819089500511      0.522011170113172      0.890656061184595
Li      1.981341996397344      1.586622731901862      1.114202873588430
Li      2.153050903932843      2.483941473722214      2.141160724785389
3
Generated trajectory
Li      0.976692257467209      0.523727687824570      0.861451635682144
Li      1.917160209189819      1.486098916457106      0.956225923846010
Li      2.104349252053181      2.469650242914653      2.076772600632435
3
Generated trajectory
Li      0.974859277362302      0.382477426105222      0.844620595523404
Li      1.992690341996127      1.389003959828686      0.929590490536111
Li      2.035225858965466      2.465282076175413      2.077286771524443
3
Generated trajectory
Li      0.875638783549176      0.408675563140759      0.978378081936426
Li      2.019818788731995      1.399092817280454      0.939820848456629
Li      1.960728693447930      2.406942520376437      1.999825929722960
3
Generated trajectory
Li      0.886502543267175      0.404015520217906      0.911025405587086
Li      1.988113959706590      1.378961132731045      0.897198953119022
Li      1.989324055973089      2.381509523899633      1.948265236908764
3
Generated trajectory
Li      0.939697760318031      0.497921676796840      0.922661427535750
Li      1.975506124554869      1.405539754691609      0.757720538143510
Li      1.930259854111549      2.466556841262928      1.892220394522343
3
Generated trajectory
Li      0.862782298508727      0.429030004822066      0.932854294507189
Li      2.012575178479172      1.341320134323260      0.742426374426839
Li      1.864732914251170      2.342848979572742      1.831338717692404
3
Generated trajectory
Li      0.910153413234850      0.357603910265577      0.819594213979358
Li      1.900302685224306      1.186816930993340      0.548134165125596
Li      1.786764779875568      2.276759919706989      1.784859638419397
3
Generated trajectory
Li      0.831610563979972      0.286816652722412      0.847902294562366
Li      1.921718812780740      1.316061000155196      0.534961967690362
Li      1.838455373613784      2.294649653560894      1.654948022463719
3
Generated trajectory
Li      0.775629738591660      0.299074586706846      0.866273587560265
Li      2.005918124301960      1.287407060203356      0.516551427246305
Li      1.679308390821577      2.215496132256117      1.635334681594577
3
Generated trajectory
Li      0.810779678418196      0.283970279398166      0.806005190184574
Li      1.997142312204567      1.235782016449850      0.471636640980906
Li      1.572573286126208      2.239855620060296      1.589739563118892
3
Generated trajectory
Li      0.878194235783178      0.192043850758580      0.861824143506939
Li      1.959511258921528      1.196829695060818      0.500726608268538
Li      1.589498015783604      2.195571304925738      1.557919961446532
3
Generated trajectory
Li      0.869272266846631      0.199308817599267      0.863199394544485
Li      1.992942673731051      1.052476235914946      0.383784469816926
Li      1.489422862567877      2.156636512819395      1.411134422132549
3
Generated trajectory
Li      0.865850008198922      0.151903094302110      0.952267814811084
Li      2.007526327413577      1.158144170168814      0.355841684523352
Li      1.446397976148338      2.153206552964321      1.454685578172882
3
Generated trajectory
Li      0.875984261439604      0.203914195542303      0.867259045932619
Li      1.938426176696077      1.227386560525930      0.194328763396455
Li      1.330098748607372      2.128980727607927      1.385116709670086
3
Generated trajectory
Li      0.888117119249788      0.154546159474314      0.951368506014298
Li      1.981042067188360      1.081216622875478      0.211284566429240
Li      1.321981392241463      2.048273467830688      1.230915557248491
3
Generated trajectory
Li      0.913905496459513      0.077197153811051      0.782019705189362
Li      2.009120346568203      0.999854826105307      0.124750471916132
Li      1.200030789258983      1.990395693102306      1.230213459106240
3
Generated trajectory
Li      0.830603475795617      0.075126811056626      0.808807453806826
Li      1.902085906029767      1.041686346663358      0.081951630761798
Li      1.263625269774203      1.940360216180436      1.189098653176091
3
Generated trajectory
Li      0.783724149850760      0.081045558127191      0.819659971189655
Li      1.931507324448952      1.018117891558936     -0.018691887923738
Li      1.169473973778222      1.829534241574318      1.124538705637696
3
Generated trajectory
Li      0.794335586660384      0.032125640696819      0.819576620711487
Li      1.928779677509818      0.980556351228228     -0.135766636408540
Li      1.057714392059458      1.871843807217045      1.005029517501408
3
Generated trajectory
Li      0.919712692329726      0.026098402670504      0.738837052262784
Li      1.917202689292867      0.944186428214835     -0.090285062225209
Li      0.952820891637745      1.792832222904486      1.074577076116229
3
Generated trajectory
Li      0.830788697383700     -0.028872668137796      0.785201112804142
Li      1.944147492510976      0.867947236040071     -0.201152407270456
Li      0.958604310248281      1.860418384062374      0.949694234717373
3
Generated trajectory
Li      0.776565354408132      0.004979302878882      0.859638059519099
Li      1.912837981767405      0.802676156631906     -0.335687678935420
Li      0.941668056720343      1.869621476471020      0.896729515118592
3
Generated trajectory
Li      0.762987547736615      0.045186456227141      0.755605329863970
Li      2.014402295456686      0.795141488642653     -0.370560306477328
Li      0.849724236834608      1.690916966242874      0.962010000196724
3
Generated trajectory
Li      0.786886209940057     -0.159266684790130      0.800046452834317
Li      2.029501910101912      0.785203573522084     -0.421918551148619
Li      0.796452915460769      1.765051939657958      0.793418090986331
3
Generated trajectory
Li      0.780686288598996     -0.231431056218466      0.725354423041949
Li      1.936322221741822      0.730992239573663     -0.410445154139889
Li      0.777357305052939      1.640417291655607      0.792111280676457
3
Generated trajectory
Li      0.798412248769967     -0.188973229838203      0.854661486694489
Li      1.985900079720088      0.672345279978469     -0.473109369633680
Li      0.735653563828696      1.690526202312038      0.676772793574388
3
Generated trajectory
Li      0.716362080346484     -0.269311023318651      0.870276832281092
Li      1.931349704535753      0.714476271718136     -0.531743286862246
Li      0.697288947505476      1.706575372115475      0.649988899394873
3
Generated trajectory
Li      0.729293517456548     -0.227037604449768      0.871840382998176
Li      1.943397782817331      0.596195238036783     -0.595786994519379
Li      0.616473487159972      1.699710929662120      0.591741872434921
3
Generated trajectory
Li      0.840603457630491     -0.272196440097274      0.735150787991222
Li      1.890951947795744      0.558258641179763     -0.781263591301413
Li      0.465915140048066      1.521435188686403      0.488709476394827
3
Generated trajectory
Li      0.853123968327553     -0.355096537158746      0.787767276973445
Li      2.004840268616757      0.623356572563753     -0.773990260064827
Li      0.415870557972230      1.624392193850780      0.435182794136901
3
Generated trajectory
Li      0.783750151067511     -0.333131212553946      0.714346420098501
Li      1.828770387811244      0.591414175342211     -0.874320693360320
Li      0.483351494739178      1.581261627874460      0.493952003592103
3
Generated trajectory
Li      0.724557722627574     -0.464599888650715      0.759719816875331
Li      1.955689310557411      0.536962656186526     -0.805366238940065
Li      0.362289662887158      1.500975035699204      0.319192903982046
3
Generated trajectory
Li      0.680092399651782     -0.357593111331693      0.713463709978452
Li      1.971397730461626      0.503712628280203     -0.962844367722860
Li      0.304670690418730      1.478837235264720      0.363984674212205
3
Generated trajectory
Li      0.709108707607243     -0.423434834322561      0.815089246397873
Li      1.852228715953323      0.445733056946116     -0.927273937944433
Li      0.383849724190525      1.493880917965485      0.284470136827513
3
Generated trajectory
Li      0.682016428169247     -0.484380483728446      0.734897991315482
Li      1.923979613387963      0.382594509829002     -1.004590003910381
Li      0.199015379951918      1.432290620177509      0.115391824140015
3
Generated trajectory
Li      0.721663545525220     -0.486413908195396      0.808868300726221
Li      2.011807403073477      0.336105155380986     -0.986628522459379
Li      0.211034945003878      1.471604379580901      0.192562442119449
3
Generated trajectory
Li      0.770077224004675     -0.460482541561501      0.743211741329423
Li      1.989494843243308      0.430495595574551     -1.039432743591076
Li      0.059299937239938      1.435284626224418      0.030986838684852
3
Generated trajectory
Li      0.654765817478219     -0.509734889938061      0.717775077200094
Li      1.971928432649992      0.325377707216033     -1.114151687454566
Li      0.079379594309716      1.395603429155720      0.091424782254565
3
Generated trajectory
Li      0.656638010066109     -0.498734580070439      0.663634757864565
Li      1.917856234804815      0.347917275378227     -1.105817368042092
Li      0.075344182249267      1.310369502071544      0.000442500847957
3
Generated trajectory
Li      0.694397489586510     -0.608503478413395      0.751029017134379
Li      1.861740091000844      0.263082193588554     -1.238529319123327
Li     -0.156785395482789      1.265372048129808     -0.027855822394862
3
Generated trajectory
Li      0.760776000474236     -0.577186226090629      0.751504147669539
Li      1.907251824002645      0.294011985377160     -1.276364195208036
Li     -0.083998953113996      1.269062987359472     -0.084553090312235
3
Generated trajectory
Li      0.616763636063469     -0.718473138977941      0.695741159488864
Li      1.962766155843768      0.315690162362342     -1.386960998054468
Li     -0.080783425704791      1.306124101170923     -0.122430187538783
3
Generated trajectory
Li      0.698153700877780     -0.686778951411887      0.663481870926094
Li      1.982847580244858      0.307661260198312     -1.335391458540041
Li     -0.231113173452594      1.217878785681249     -0.136543247324548
3
Generated trajectory
Li      0.612056073289857     -0.649525681982358      0.764485457290289
Li      1.973743149419924      0.208080698323014     -1.444546663560617
Li     -0.183751359933982      1.222003269194892     -0.178348183035355
3
Generated trajectory
Li      0.661951995877732     -0.720076020764376      0.678478375569072
Li      1.985851003836793      0.241108672101563     -1.514287213584020
Li     -0.287254996366793      1.192765953601930     -0.221038907802399
3
Generated trajectory
Li      0.669444331033660     -0.692360867199378      0.596074520634095
Li      1.898835375777218      0.185940140688933     -1.583998700053445
Li     -0.315884281999754      1.090128315685152     -0.236597533206863
3
Generated trajectory
Li      0.674112926814153     -0.634561128111695      0.666222669578907
Li      1.996313268879342      0.178094722617943     -1.549276667357929
Li     -0.335280525559213      1.155229065150479     -0.269379561568899
3
Generated trajectory
Li      0.707852019737721     -0.755563910292570      0.622679721332528
Li      1.928674523160893      0.241126877260597     -1.555712825124369
Li     -0.312415910930385      1.141628816692413     -0.317051225727211
3
Generated trajectory
Li      0.737200430966333     -0.794936194548759      0.706100095490109
Li      2.027274342738981      0.183316925041605     -1.631528548643228
Li     -0.327284295543073      1.009989826832733     -0.438712243578047
3
Generated trajectory
Li      0.656541707440546     -0.808209565343683      0.692132049006853
Li      1.967073844209206      0.141015042227530     -1.606759785165724
Li     -0.357232811747196      1.025294711236305     -0.346579985949463
3
Generated trajectory
Li      0.721097563550507     -0.776665361052037      0.723022268992885
Li      1.818658446219502      0.024174859408659     -1.756936732080396
Li     -0.421251433743440      1.092206712839986     -0.389228846551494
3
Generated trajectory
Li      0.646911123140190     -0.793215070766877      0.679401477368422
Li      1.937919127934498      0.143386661066501     -1.724148417917774
Li     -0.373364339970463      1.106694294295740     -0.461084610816144
3
Generated trajectory
Li      0.681780367872212     -0.757025159382822      0.658256869710592
Li      1.934384856005410      0.088180500488830     -1.749559224015925
Li     -0.473909443811346      1.066773564389873     -0.501787457829658
3
Generated trajectory
Li      0.764660693305722     -0.777897692628772      0.584545629343675
Li      1.951523912902215      0.200786760058980     -1.727201959277459
Li     -0.452222981305161      1.005281534898828     -0.512146191155599
3
Generated trajectory
Li      0.632893102626710     -0.917226362985325      0.747824083770342
Li      1.959627564286479      0.066508519691308     -1.744903707141814
Li     -0.568490023366345      1.035139711155189     -0.487975015725576
3
Generated trajectory
Li      0.718980410841045     -0.834973455982680      0.652683048849939
Li      1.886898973776735     -0.058895768018558     -1.704240301951380
Li     -0.501812753166875      0.979489447368000     -0.595717965523494
3
Generated trajectory
Li      0.578418899481677     -0.842203169525401      0.686545584118554
Li      1.977292710646830      0.066579209081652     -1.897279102804401
Li     -0.632153201320620      1.001705710810915     -0.605183931704587
3
Generated trajectory
Li      0.686770288544244     -0.834825110886354      0.588204290590116
Li      1.860157145649695      0.011080094010116     -1.819334172877697
Li     -0.585393302058131      0.913742223725218     -0.638438005667052
3
Generated trajectory
Li      0.638001377692573     -0.743644392239860      0.690722049411348
Li      1.947658954112366      0.068438177626898     -1.881499537098580
Li     -0.635973716434859      1.018623486428516     -0.684248376271716
3
Generated trajectory
Li      0.675715129524288     -0.856258389476879      0.708759890795847
Li      1.921384927453745     -0.067320540721357     -1.832658833916657
Li     -0.543986563811292      0.990489453855165     -0.683029659034581
3
Generated trajectory
Li      0.734153198759026     -0.788612846875191      0.635653724875843
Li      1.944755853470423     -0.104748407415444     -1.852792252564903
Li     -0.640328628618065      1.035646185386047     -0.665310839576389
3
Generated trajectory
Li      0.712969335969706     -0.928717807760683      0.677841862125438
Li      1.870703018966908      0.006193518762819     -1.945519683291414
Li     -0.641956537118877      0.779179468696797     -0.648484041168518
3
Generated trajectory
Li      0.653607713441890     -0.875733956617530      0.631429209724166
Li      1.910775067293240     -0.086857197176096     -1.895230744224857
Li     -0.727073709899540      0.879923782868776     -0.594970478749220
3
Generated trajectory
Li      0.641613919834245     -0.849150071019665      0.648692005565582
Li      1.873922454219304      0.033422982601484     -1.914632283322965
Li     -0.651432292302697      0.971703525898741     -0.608639421884127
3
Generated trajectory
Li      0.639182016793227     -0.905469052387415      0.690112459034598
Li      1.894442080193927      0.070312647521484     -1.951096677373451
Li     -0.693173859190090      0.931433515628024     -0.553368197478835
3
Generated trajectory
Li      0.686478093824712     -0.944007031811003      0.714452812598392
Li      1.911196558734682      0.114460404537098     -1.996439719130855
Li     -0.598427781557355      1.007640385682090     -0.554946810700843
3
Generated trajectory
Li      0.665761717321289     -0.863116163524959      0.644435082239046
Li      1.963940106517733      0.027976824980215     -1.918975164281473
Li     -0.685285089427880      1.056681018172399     -0.589529989196828
