4
Generated trajectory
Li     -1.717770418536383     -2.603891291131959      2.071068974897803
Li     -3.521680458270575     -0.836333754259148      0.491571952700385
Li      0.119913143568833     -0.824316264460512      0.454114659303371
Li     -0.009746208454619     -4.258218540742043      0.355742412121017
4
Generated trajectory
Li     -1.694115769908537     -2.658326562494310      2.163946634458262
Li     -3.442535995491797     -0.931062824939542      0.459326204982856
Li     -0.020040595665620     -0.908191407954580      0.418042670794520
Li      0.051593872168565     -4.237879670300655      0.423124267073709
4
Generated trajectory
Li     -1.664587160443454     -2.567179486130536      2.055165044855165
Li     -3.357899317543517     -0.814067137559093      0.477136778777442
Li     -0.049242106787040     -0.871224950369414      0.440941262868796
Li      0.031529878034740     -4.253794468581445      0.456844446694845
4
Generated trajectory
Li     -1.771896804107210     -2.548447666089629      2.106904429528972
Li     -3.291243872566838     -0.766232309249901      0.430086372491519
Li     -0.000063223183469     -0.916578414641572      0.544623118998348
Li      0.088201185981666     -4.319841748731046      0.425966104952077
4
Generated trajectory
Li     -1.744265289457788     -2.517724941875456      2.094068531080809
Li     -3.363583407536467     -0.852176355729367      0.466483701232417
Li     -0.065697022934247     -0.872666793247985      0.400284536478505
Li     -0.038511321938180     -4.290630378667328      0.426554181975471
4
Generated trajectory
Li     -1.754666657926184     -2.537987968791673      2.192748520815051
Li     -3.407826265240459     -0.895945374339302      0.371104988848600
Li      0.018598346415808     -0.913764003977681      0.495314196100563
Li      0.010788638838522     -4.252244868920029      0.499994489698051
4
Generated trajectory
Li     -1.722425567900087     -2.560968193798494      2.228294386402379
Li     -3.320370821630815     -0.835016237092030      0.331740572581099
Li      0.042761872646185     -0.806696322030587      0.271411133172633
Li     -0.003216100824142     -4.244519608576127      0.483164898533631
4
Generated trajectory
Li     -1.731040594963760     -2.570237679789015      2.126078674773348
Li     -3.296796301191850     -0.839619562495375      0.363203019130159
Li      0.016532287134277     -0.823961032392968      0.461628189525275
Li      0.033615370209525     -4.199206351758630      0.467634857840574
4
Generated trajectory
Li     -1.757133587014032     -2.605341587209528      2.083617266206759
Li     -3.349613499495765     -0.851372658446057      0.392823572938265
Li     -0.001598829542265     -0.863323730620142      0.471739027228076
Li     -0.085280138971485     -4.222656755956451      0.363747464907994
4
Generated trajectory
Li     -1.707618308111249     -2.580171843053251      2.153231651965556
Li     -3.278005737036213     -0.793617849785603      0.352409812621808
Li     -0.007064876542793     -0.876281990498259      0.377267953876834
Li     -0.054902573403853     -4.335565776700665      0.484782203451795
4
Generated trajectory
Li     -1.687928931534171     -2.480125359679695      2.130422683344428
Li     -3.271156445388887     -0.775265204803259      0.428992531750292
Li     -0.006471717587967     -0.772257761714518      0.341016385660445
Li      0.002364760475431     -4.106653668382439      0.572208705990983
4
Generated trajectory
Li     -1.616077630037227     -2.504481694464888      2.065250024730906
Li     -3.253244083351955     -0.862858110625011      0.343473400661575
Li      0.020868848106994     -0.787387911635171      0.424591731268516
Li      0.002785792348307     -4.187837389782607      0.414114704970022
4
Generated trajectory
Li     -1.580197714922303     -2.573251893437135      2.016118717950575
Li     -3.261677711205305     -0.802422281045237      0.356681174366808
Li     -0.019592125252667     -0.753415032249059      0.364769523104284
Li     -0.061213848566008     -4.186121769385730      0.499068709061840
4
Generated trajectory
Li     -1.603507825753602     -2.487302345154782      2.022128416038547
Li     -3.281843154591434     -0.840401013512205      0.223132460795975
Li      0.025601387279330     -0.737078568943507      0.375591871227000
Li     -0.066271692291521     -4.130961121565406      0.438442340538788
4
Generated trajectory
Li     -1.613123391457653     -2.466398557021056      2.034336140673828
Li     -3.112030650482684     -0.758057430608983      0.338524468276935
Li     -0.021662905876781     -0.798361944357503      0.324959804024286
Li     -0.064027552975048     -4.071944800006635      0.433585510191363
4
Generated trajectory
Li     -1.538328135570002     -2.501735030461079      2.049672870565566
Li     -3.082623805108831     -0.866439738266699      0.322720617711486
Li     -0.018904712072571     -0.742844331848293      0.399211657961010
Li     -0.129315465543169     -4.048860930553356      0.494807360446187
4
Generated trajectory
Li     -1.557748297678079     -2.457003545274049      2.092559625184666
Li     -3.032459187435070     -0.782345969916632      0.241468686673206
Li     -0.065244615925876     -0.714435398323371      0.396275496922778
Li     -0.073385268950151     -3.923081283124006      0.543296794474734
4
Generated trajectory
Li     -1.543036454801122     -2.405849875728977      1.983168320277333
Li     -2.896295728575859     -0.781844687782285      0.257547210805641
Li      0.025968957101636     -0.767897523111341      0.263422486592169
Li     -0.240843134678272     -4.002023034309797      0.533051845504146
4
Generated trajectory
Li     -1.519880280259095     -2.420594866673260      2.088493292286803
Li     -3.063830624600588     -0.720375548592697      0.168469359856645
Li     -0.049568733535720     -0.622997328483069      0.261583144031656
Li     -0.103678748142485     -3.851459166036067      0.514580997523828
4
Generated trajectory
Li     -1.425451513327759     -2.357516940294480      1.974523728050477
Li     -3.060784706133525     -0.748698566478948      0.215682110394265
Li     -0.196390812225734     -0.695974351674911      0.397494418136598
Li     -0.128296794957770     -3.871527555545439      0.596099291116331
4
Generated trajectory
Li     -1.399985709998907     -2.407626352545432      1.979148584762527
Li     -2.871449752705135     -0.777397665845426      0.150507627379998
Li     -0.071182874481643     -0.691665655162348      0.217350717618576
Li     -0.129944359029709     -3.873979147857672      0.590843509607986
4
Generated trajectory
Li     -1.390741843973537     -2.477788018746348      1.935164694352641
Li     -2.760671782797794     -0.882282423145093      0.203203962916616
Li     -0.162734837935847     -0.676480001104715      0.299232961345264
Li     -0.217489528799717     -3.880806107716163      0.504358654888752
4
Generated trajectory
Li     -1.391937776387754     -2.381444547073134      1.943678459468444
Li     -2.782779083673238     -0.758138178471365      0.135937535751715
Li     -0.065138288021357     -0.670677826595709      0.360735182858564
Li     -0.304605021590341     -3.818598640017990      0.699348632595751
4
Generated trajectory
Li     -1.447244972661580     -2.328045923490767      1.967032496880329
Li     -2.754217078009519     -0.671480307543275      0.095463725073032
Li     -0.155114198754305     -0.631243369206488      0.247030157722005
Li     -0.278833752084047     -3.750188623879006      0.565682707434024
4
Generated trajectory
Li     -1.423448115911888     -2.322822266132567      1.851501274717326
Li     -2.719110766424414     -0.667671089496132      0.084626347722746
Li     -0.065325544743661     -0.632652695751117      0.258691723648244
Li     -0.254236857441052     -3.681364153072293      0.664385710471940
4
Generated trajectory
Li     -1.392917053047712     -2.322909959266706      1.882142618187394
Li     -2.621753626095238     -0.639115042218055      0.154991310311614
Li      0.005257877775345     -0.531542151203726      0.301055705882793
Li     -0.233078305497829     -3.663789017081096      0.635155073817770
4
Generated trajectory
Li     -1.424851987851203     -2.402478486067240      1.868205830215315
Li     -2.595765909321710     -0.695767202776488      0.057931569734844
Li     -0.075074822904423     -0.595367189860152      0.257943164939308
Li     -0.294502365448812     -3.567445073414885      0.543033747605612
4
Generated trajectory
Li     -1.264545189787804     -2.323159396203202      1.877050542209019
Li     -2.509827082036381     -0.726212465027385      0.050551837620509
Li     -0.142014315025954     -0.576107664458827      0.262547838019403
Li     -0.359587010151188     -3.550316216612142      0.545552229895359
4
Generated trajectory
Li     -1.337179210894116     -2.318257065428368      1.898971666423082
Li     -2.362109735123925     -0.658422491317807     -0.079535547840349
Li     -0.152373885350139     -0.620561799400001      0.241586187966548
Li     -0.325299659829500     -3.436618023132464      0.663066884527445
4
Generated trajectory
Li     -1.239971588252868     -2.257566957250906      1.875158033670704
Li     -2.361052378946719     -0.754263945729513     -0.115485775623579
Li     -0.217399218362814     -0.436875337358745      0.191194271491569
Li     -0.443050668514512     -3.428207925022730      0.675289629327763
4
Generated trajectory
Li     -1.226842056373802     -2.213568602289113      1.757986703435127
Li     -2.340894939127761     -0.650751639952680     -0.048901583023723
Li     -0.105988248075621     -0.463369378468523      0.173702447310907
Li     -0.378264112932499     -3.393560828390161      0.692703534799403
4
Generated trajectory
Li     -1.152057831773082     -2.131753183559493      1.820247221291696
Li     -2.216030772628935     -0.651447838113173     -0.104128849400447
Li     -0.174389601795502     -0.494032745746591      0.219758584568652
Li     -0.494958223581489     -3.265072148645996      0.813997025710756
4
Generated trajectory
Li     -1.206162380433707     -2.138353345587736      1.858407603472556
Li     -2.126013977013018     -0.673251394755197     -0.182101326001263
Li     -0.219761906426547     -0.430806302015292      0.108185641065655
Li     -0.523060891158977     -3.246463244555872      0.836883662306968
4
Generated trajectory
Li     -1.133899092971018     -2.234274741702510      1.788010924757227
Li     -2.040853735528908     -0.619524357668284     -0.336920938125083
Li     -0.180136040643702     -0.413370664332598      0.329024912291930
Li     -0.420630832101545     -3.172804752699172      0.859777837458627
4
Generated trajectory
Li     -1.099524605968771     -2.096918519445669      1.746755187722659
Li     -1.971061331212748     -0.589907065027651     -0.153618357327916
Li     -0.201589478361776     -0.421712742818313      0.112610364229791
Li     -0.453685714525186     -3.176073943605292      0.797576524479621
4
Generated trajectory
Li     -1.067973625901945     -2.073422927745110      1.705565901070559
Li     -1.910720336179781     -0.455363675087487     -0.266153717627916
Li     -0.158298243015534     -0.323014520628634      0.159402417935362
Li     -0.575163760301890     -3.209384638995678      0.795872659050175
4
Generated trajectory
Li     -1.077162688472046     -2.187396911881743      1.621376726421411
Li     -1.894927269737757     -0.668708199457417     -0.211306254995400
Li     -0.137961330674127     -0.300065955970411      0.066601175197409
Li     -0.476917638572006     -3.141166247600856      0.811124756937143
4
Generated trajectory
Li     -0.948510281362912     -2.087447128678725      1.732863950954371
Li     -1.790357522466383     -0.634129650915329     -0.205606438564534
Li     -0.244056272762338     -0.253205416150109      0.146762102840291
Li     -0.523117967150143     -2.992465836759454      0.871481305637581
4
Generated trajectory
Li     -1.010416997339659     -2.001964843299311      1.648211906423323
Li     -1.806973829373841     -0.571786227653924     -0.473576780498711
Li     -0.192959923425745     -0.369230830404808      0.102273773142328
Li     -0.643622009931691     -2.901232632074950      0.891861897162544
4
Generated trajectory
Li     -0.798373174217446     -2.058824883941046      1.678146933108769
Li     -1.576899314298607     -0.508050087779854     -0.434943966870999
Li     -0.285583679335958     -0.259964813231712      0.110524582909953
Li     -0.708954511641327     -2.790308365962970      0.902073507064136
4
Generated trajectory
Li     -0.820746117369684     -2.028195797957365      1.618195884053076
Li     -1.566300872437210     -0.630837691543298     -0.498005443942083
Li     -0.186342052763854     -0.247010862584633      0.043854936803567
Li     -0.710145098920663     -2.805733850744214      0.986075411513539
4
Generated trajectory
Li     -0.888893843614362     -1.976665073905572      1.549334787871346
Li     -1.386254703133524     -0.422823022704886     -0.442962181488784
Li     -0.285602981218065     -0.157327261183861      0.111057183489891
Li     -0.794055098441030     -2.788480405603389      0.988499991219473
4
Generated trajectory
Li     -0.805141632217806     -1.904425292194770      1.509913868689187
Li     -1.456312419921949     -0.522501785746792     -0.519004892128697
Li     -0.208561492631161     -0.210717045597507      0.008613097149553
Li     -0.709935333208986     -2.645049443033696      1.062209841058624
4
Generated trajectory
Li     -0.736537962947548     -1.980966517025618      1.536592241548011
Li     -1.402694356925706     -0.567654786485523     -0.491386095989592
Li     -0.289869490640325     -0.112138917443655      0.035775241328481
Li     -0.756203667086573     -2.467814830150437      1.079287236799995
4
Generated trajectory
Li     -0.740499589363517     -1.896126735487085      1.553849077636862
Li     -1.183092303182104     -0.432096013689766     -0.475884891525168
Li     -0.192495575824503     -0.054341932622190      0.001751601238946
Li     -0.788967614920696     -2.437354569350499      0.993230638224970
4
Generated trajectory
Li     -0.691219325568518     -1.977311450494226      1.522203316266439
Li     -1.137044597609569     -0.519563693978749     -0.534705135281955
Li     -0.315207332590397     -0.021026818523720     -0.021152110305913
Li     -0.790774390886003     -2.418613718302931      0.982727467166691
4
Generated trajectory
Li     -0.649303530240500     -1.880686243985679      1.490445136142058
Li     -1.029829960711225     -0.434264238578159     -0.662100562117386
Li     -0.277666102231828     -0.001408666295783     -0.075945744948348
Li     -0.915722348526196     -2.287358414973076      1.023321743190358
4
Generated trajectory
Li     -0.582131143292251     -1.781099460856650      1.442924661435429
Li     -0.999801015767816     -0.465400881672972     -0.763610752688578
Li     -0.291880118747763     -0.001670473070710     -0.108001313960364
Li     -0.863905045193789     -2.393725528172326      1.040099907909227
4
Generated trajectory
Li     -0.582696728544552     -1.815672686484255      1.415378292142084
Li     -0.908873606182120     -0.368985964571297     -0.671526168901682
Li     -0.328982953946793     -0.054691694927773     -0.129969747697185
Li     -0.902521691672703     -2.241021458618254      1.124980083962057
4
Generated trajectory
Li     -0.514249171866711     -1.748654051668963      1.528631268870922
Li     -0.841812753430344     -0.365882521456743     -0.735674420680191
Li     -0.389045337267165     -0.034673359861789     -0.110832018109532
Li     -0.951462224185524     -2.108683148476562      1.146023177125706
4
Generated trajectory
Li     -0.513696096343392     -1.853465374089975      1.318503937688768
Li     -0.752532236287541     -0.453463129501175     -0.764749516191991
Li     -0.381103191926112      0.109313665658319     -0.085485211981035
Li     -0.973836685760496     -2.065103057918799      1.148149028777274
4
Generated trajectory
Li     -0.460001293975098     -1.690448361717987      1.245692467195948
Li     -0.589079341175809     -0.353852046386983     -0.838331996774842
Li     -0.281362841573555      0.093367166215764     -0.144609022119063
Li     -0.875611502953878     -2.050041701979535      1.124576469380423
4
Generated trajectory
Li     -0.419732102769268     -1.669248683852624      1.327784489441177
Li     -0.564278487415311     -0.420143355274324     -0.853707057815807
Li     -0.343748568564984      0.025486189254635     -0.045289091504896
Li     -0.984367951887968     -2.009975594835949      1.218420969404746
4
Generated trajectory
Li     -0.327869622948525     -1.727575178593104      1.360080637471747
Li     -0.443002787108937     -0.461609300526950     -0.887711519929564
Li     -0.445548146012335      0.059403141771321     -0.192205794206265
Li     -1.087383296321200     -1.817596587420381      1.305032529869482
4
Generated trajectory
Li     -0.299856464451908     -1.621740206941438      1.307570801791099
Li     -0.357058650979495     -0.411706114555880     -0.909982447281330
Li     -0.357992946165157      0.223455065566979     -0.105406518703185
Li     -0.962063851346404     -1.850450539858501      1.348396122978873
4
Generated trajectory
Li     -0.308879512921364     -1.533348818892979      1.237571663456264
Li     -0.334214175889931     -0.274833826786357     -0.981545561686652
Li     -0.320464999234659      0.254120465010141     -0.163571973727192
Li     -1.110300059887873     -1.837319319813694      1.383407310769530
4
Generated trajectory
Li     -0.254384852545512     -1.509309901822653      1.196460447687953
Li     -0.138059162206952     -0.385498517156682     -1.032512717307713
Li     -0.433986433519149      0.245866801674198     -0.347679245253887
Li     -1.179605694800471     -1.574528626957130      1.237378077786530
4
Generated trajectory
Li     -0.302039697577482     -1.519459778753436      1.176045543252172
Li     -0.132251420824004     -0.358422323960010     -1.054684877007362
Li     -0.425133175493074      0.209940600720716     -0.238033002778450
Li     -1.217584942385225     -1.620229198804501      1.379020470897756
4
Generated trajectory
Li     -0.124109873873871     -1.479700627057904      1.157390408587275
Li      0.014600553131218     -0.282587117931485     -1.014933728504497
Li     -0.358369868742680      0.286530406288753     -0.257370639483903
Li     -1.280676760112668     -1.485308092759736      1.344701927981694
4
Generated trajectory
Li     -0.095665170293022     -1.454377042434064      1.223497374583781
Li      0.043130562606009     -0.272569018663376     -1.087883117057541
Li     -0.439872058087772      0.315891936744539     -0.360485304898206
Li     -1.268652814805581     -1.452983691782144      1.405667517273672
4
Generated trajectory
Li     -0.100577135821677     -1.476112805868733      1.066949771384530
Li      0.142555396398698     -0.223530899385698     -1.143405072205816
Li     -0.412724318081562      0.296201774768054     -0.256626242047648
Li     -1.372926026355905     -1.488083488944228      1.383724136226760
4
Generated trajectory
Li     -0.186888853949444     -1.478575462555701      1.093707766374096
Li      0.135452091869052     -0.233507433474741     -1.125335756412945
Li     -0.516676579916470      0.366532421253347     -0.306076900420479
Li     -1.311022426617855     -1.417721501029638      1.454690837179129
4
Generated trajectory
Li     -0.041840958696422     -1.444911709076507      1.130937899885311
Li      0.271613921737639     -0.303050288365896     -1.202967179760958
Li     -0.411912930975486      0.497778187692429     -0.294302584871190
Li     -1.297229421482615     -1.366001234536653      1.416442260581170
4
Generated trajectory
Li     -0.017844653325355     -1.421560341322840      1.114129195409208
Li      0.460483315259393     -0.296682988037616     -1.172020280766425
Li     -0.461663649241372      0.399107258815315     -0.352227964780282
Li     -1.390777125947662     -1.173631604383745      1.511106109714774
4
Generated trajectory
Li     -0.044287069559427     -1.333522990303748      1.083058945918104
Li      0.582052325045201     -0.220042590974678     -1.282748577493686
Li     -0.529275001374085      0.402230679752221     -0.382025958022632
Li     -1.372028723614843     -1.244637174521359      1.531590610758711
4
Generated trajectory
Li      0.154415960287706     -1.306139449618352      1.073626878352799
Li      0.538593551460644     -0.155211858978131     -1.307782818513474
Li     -0.451006685858415      0.456298303704072     -0.379117845507593
Li     -1.462009515840875     -1.152847981002629      1.471976859631895
4
Generated trajectory
Li      0.024206836852790     -1.342058285499320      1.067632277360636
Li      0.586404639089074     -0.246748200158940     -1.396872415991152
Li     -0.409182142196204      0.476933688722254     -0.400129718834633
Li     -1.394908932265625     -1.069739128413651      1.508319518961349
4
Generated trajectory
Li      0.088561705980026     -1.384058399307335      1.051716695544174
Li      0.662470225817915     -0.247519759099759     -1.364064213181299
Li     -0.489122390559198      0.576593555455046     -0.321857400669814
Li     -1.385512237230974     -1.035334240218074      1.617992984732819
4
Generated trajectory
Li      0.139899284432471     -1.292602424452662      1.052862601811891
Li      0.733997662443692     -0.189915964956554     -1.419023351893390
Li     -0.434829219184770      0.648992092013214     -0.360671362718441
Li     -1.509347141584792     -1.031592878629072      1.541468483764231
4
Generated trajectory
Li      0.120761190347901     -1.294281604019532      0.957425080071372
Li      0.821402106141466     -0.207253717919420     -1.447095827688178
Li     -0.606551380511227      0.592709763415234     -0.391347083538296
Li     -1.535875131156261     -0.909466319429969      1.620705857392556
4
Generated trajectory
Li      0.171473655092330     -1.217533425998789      0.934725739657680
Li      0.896478463923186     -0.179112145569589     -1.415088382342665
Li     -0.570045108545020      0.665559836133544     -0.374987918014241
Li     -1.540470189187469     -0.836441198765181      1.611149285616502
4
Generated trajectory
Li      0.191689223126993     -1.153616662023789      0.973187134569841
Li      1.009368707076163     -0.175408724286455     -1.477575263580565
Li     -0.572561194684228      0.580368086892382     -0.442738080642837
Li     -1.585778771948017     -0.852096647186869      1.783322729793073
4
Generated trajectory
Li      0.241138122338122     -1.253049453967280      0.916698049625589
Li      0.965098053491865     -0.108350774139900     -1.522777564607590
Li     -0.588191017983354      0.641364727741837     -0.479932879212388
Li     -1.612654759243372     -0.734049920547451      1.649399439551751
4
Generated trajectory
Li      0.294783352329625     -1.164277875275028      0.892834567338200
Li      1.049865675870273     -0.093802452233746     -1.473772605657244
Li     -0.555058100338026      0.719651278223263     -0.480397792395858
Li     -1.581998215496182     -0.735087926888399      1.664695629056946
4
Generated trajectory
Li      0.251532826886917     -1.118123892507019      0.814119116027226
Li      1.083031933071035     -0.150647715791261     -1.604625204742481
Li     -0.519342830267986      0.688045070920589     -0.470214398409393
Li     -1.687601635414327     -0.662183962917064      1.737382593527229
4
Generated trajectory
Li      0.335182709111510     -1.117859167787968      0.808643656579753
Li      1.242395109507380     -0.148860934456244     -1.612308412245055
Li     -0.550664983090058      0.661442514135354     -0.505312944841338
Li     -1.621182453687050     -0.630635883314064      1.696088358894976
4
Generated trajectory
Li      0.298682084886332     -1.088513355707867      0.766277377837308
Li      1.278704010932047     -0.072636833274995     -1.653686840488068
Li     -0.583005139157719      0.744279819367106     -0.514447686652867
Li     -1.706934337202373     -0.592402466121403      1.722430023777451
4
Generated trajectory
Li      0.409174020794921     -1.042764548088695      0.823742211637217
Li      1.273528203429226     -0.150619574699516     -1.651972369019395
Li     -0.584992056169355      0.750012642987012     -0.575779471107898
Li     -1.692870241879426     -0.474398294504663      1.709925219314367
4
Generated trajectory
Li      0.369580102806935     -1.102397319017407      0.868766673711135
Li      1.340045737448585     -0.109188155101635     -1.629886691878346
Li     -0.543203287539794      0.721816369581290     -0.552751637400961
Li     -1.752158547483728     -0.455467146401238      1.836707479988744
4
Generated trajectory
Li      0.405767452845164     -1.141173151924646      0.824425731193810
Li      1.332132356686486     -0.021530868500980     -1.748938525242332
Li     -0.605913081905559      0.794765048265348     -0.464742073860445
Li     -1.805854050803692     -0.437979043974719      1.769255568098192
4
Generated trajectory
Li      0.536717607592950     -1.144387916259398      0.786354085530519
Li      1.434857144219652     -0.103068893431581     -1.832480242082907
Li     -0.710108899064150      0.692735236921217     -0.575211653170511
Li     -1.761121703406940     -0.448673450567964      1.804993947186506
4
Generated trajectory
Li      0.444231185200036     -1.056790509080259      0.797018847593670
Li      1.419319219929172     -0.092875667195138     -1.681593112331321
Li     -0.662196533621455      0.847639794130066     -0.566621816256614
Li     -1.787700036261207     -0.467744390677546      1.848264931511732
4
Generated trajectory
Li      0.521666391523078     -0.971530154139444      0.657417654066043
Li      1.497725180636826     -0.055157535890310     -1.674180173368379
Li     -0.655154116911893      0.780283515065853     -0.607166513384296
Li     -1.813119276735922     -0.275714082898285      1.804171826723283
4
Generated trajectory
Li      0.532498442565481     -1.041328864197431      0.780277643501355
Li      1.655807797047576      0.005156471722858     -1.815204657496084
Li     -0.686108437390251      0.815694666928495     -0.584433586810038
Li     -1.711347098339322     -0.323909988797154      1.765851722279841
4
Generated trajectory
Li      0.550242608849614     -0.998064709045149      0.719336489023306
Li      1.669236590292578     -0.057837400491820     -1.696032952386779
Li     -0.673552501311394      0.892067411707551     -0.583558071640374
Li     -1.784981931254215     -0.072241793760243      1.794979025101540
4
Generated trajectory
Li      0.523630015105535     -1.006495685328949      0.740208725857267
Li      1.681151400154632     -0.034051167151271     -1.857321018441586
Li     -0.616687232303044      0.855733608268317     -0.653525703523650
Li     -1.728044913705865     -0.205085554643666      1.916732271803084
4
Generated trajectory
Li      0.627627660791836     -0.980109358581330      0.785335071964570
Li      1.702099170654385     -0.073850997014048     -1.812225212733880
Li     -0.633069154995350      0.797207379205823     -0.586067012149266
Li     -1.955933372831484     -0.257197245251510      1.869078573324500
4
Generated trajectory
Li      0.613555374532771     -0.993521976151513      0.666256684719191
Li      1.711168051978430      0.025539796951966     -1.851058687335664
Li     -0.681593334559314      0.839978179278585     -0.591421353326602
Li     -1.888248892580119     -0.211153673704802      1.808037869285161
4
Generated trajectory
Li      0.511025425672752     -0.980451198895666      0.623597637646463
Li      1.693505439934818     -0.088570999683028     -1.856287494114045
Li     -0.554247484817673      0.829616949376989     -0.579185509986985
Li     -1.928211135752463     -0.103384964463525      1.833312768797988
4
Generated trajectory
Li      0.593492048251783     -1.030695422409815      0.756120607926662
Li      1.661561663991844     -0.023213199794534     -1.988294317003485
Li     -0.628198117876278      0.854989611818408     -0.641737607773901
Li     -1.857951310703991     -0.069688969957540      1.811705217009968
4
Generated trajectory
Li      0.604574114607999     -0.934804911508077      0.695530165476926
Li      1.844960206894285      0.019041381375716     -1.848211571570628
Li     -0.638202321391430      0.887751139942002     -0.658742287459950
Li     -1.846670144579156     -0.160286973102208      1.943752574728866
4
Generated trajectory
Li      0.606281712856511     -0.974802348322817      0.704691567410807
Li      1.870282063189761      0.003171540081768     -1.925157576664138
Li     -0.615923404745889      0.856634959637403     -0.599328094232406
Li     -1.905183381457493     -0.130819131352602      1.936972121455991
4
Generated trajectory
Li      0.741153954351677     -0.860839038584024      0.562512580405263
Li      1.872530259290775     -0.107533578826807     -1.895840666314331
Li     -0.656382107266809      0.849095189540416     -0.585110414535598
Li     -1.827157178212838      0.032067599554176      1.866350982313851
4
Generated trajectory
Li      0.642163960245311     -0.968050174676899      0.560171548424201
Li      1.935305017731493      0.015574027937499     -1.872364141255718
Li     -0.712086628315056      0.901953448791613     -0.666175648076103
Li     -1.923996500201009      0.063561082728287      1.887345998025243
4
Generated trajectory
Li      0.612007857853939     -0.965791836656487      0.717386100841440
Li      1.898102119431734      0.023342123438551     -1.908269158995984
Li     -0.682999396102062      0.887946159256518     -0.736755804684820
Li     -1.955360402849609     -0.109791970415244      1.877900645161971
4
Generated trajectory
Li      0.603378748089019     -1.031514273719856      0.663432375987137
Li      1.850840873569384      0.011650691135883     -1.936533756875192
Li     -0.696808998868314      0.844207271628999     -0.595632016195749
Li     -1.900432911441731     -0.045894721814582      1.900922745582453
4
Generated trajectory
Li      0.658024279587198     -0.993654246574296      0.623510289515610
Li      1.887713433137549      0.013134365412042     -1.985776927343466
Li     -0.642356565762419      1.041135482255312     -0.613720647567526
Li     -1.852660547143540      0.001637145500857      1.936404405245304
4
Generated trajectory
Li      0.618190834992457     -1.000396178448750      0.623137179765832
Li      1.877255677922663     -0.015578129164769     -1.929535838719588
Li     -0.669002616922175      0.963405006502880     -0.674239984728819
Li     -1.874322477511066      0.016218077751686      1.938882588026589
4
Generated trajectory
Li      0.655594122284093     -0.895631918128563      0.649059496632484
Li      2.016149328059834      0.068897955424465     -1.961923413069099
Li     -0.558585044099505      0.949787532702837     -0.695774456514276
Li     -1.938915221512705      0.033824075450024      1.882508838243439
4
Generated trajectory
Li      0.612473691249523     -0.893142316539739      0.672842734628133
Li      1.838193081068330      0.013901458155626     -1.931483250315685
Li     -0.636840871223877      0.917490573195924     -0.708569423386557
Li     -1.940448644594073     -0.004262781928763      1.857916019389150
