4
 Atoms. Timestep: 0
Li -1.706001 -2.577914 2.107319
Li -3.424719 -0.912356 0.431081
Li -0.034072 -0.966508 0.443184
Li 0.006813 -4.321238 0.425870
4
 Atoms. Timestep: 10
Li -1.726554 -2.565463 2.153820
Li -3.444462 -0.851088 0.472507
Li -0.046765 -0.874297 0.502008
Li 0.024972 -4.323205 0.405816
4
 Atoms. Timestep: 20
Li -1.691616 -2.619231 2.107647
Li -3.425074 -0.769924 0.369329
Li -0.017980 -0.809669 0.375371
Li -0.027127 -4.239999 0.466563
4
 Atoms. Timestep: 30
Li -1.693933 -2.631076 2.138859
Li -3.396250 -0.825903 0.521479
Li 0.034494 -0.894160 0.454819
Li -0.021643 -4.259230 0.488701
4
 Atoms. Timestep: 40
Li -1.705750 -2.503538 2.133630
Li -3.440785 -0.931268 0.453676
Li -0.039168 -0.884398 0.413070
Li -0.006141 -4.176720 0.375648
4
 Atoms. Timestep: 50
Li -1.701285 -2.549129 2.116503
Li -3.378192 -0.802076 0.395411
Li -0.002862 -0.860125 0.495027
Li 0.014999 -4.161099 0.432138
4
 Atoms. Timestep: 60
Li -1.661053 -2.548327 2.127207
Li -3.374512 -0.890496 0.444403
Li -0.026408 -0.939605 0.432824
Li 0.035015 -4.237499 0.492940
4
 Atoms. Timestep: 70
Li -1.709433 -2.564681 2.273624
Li -3.409659 -0.869769 0.378130
Li -0.052239 -0.853195 0.456896
Li -0.062112 -4.208644 0.496091
4
 Atoms. Timestep: 80
Li -1.722863 -2.544158 2.024793
Li -3.416803 -0.880536 0.363498
Li -0.066774 -0.752847 0.435478
Li -0.015535 -4.274333 0.278150
4
 Atoms. Timestep: 90
Li -1.766197 -2.495416 2.146819
Li -3.312174 -0.838043 0.370235
Li -0.035807 -0.806151 0.414441
Li 0.075080 -4.212677 0.431720
4
 Atoms. Timestep: 100
Li -1.624504 -2.612939 2.221836
Li -3.354913 -0.781441 0.363308
Li 0.022488 -0.842544 0.428388
Li 0.009718 -4.202924 0.391643
4
 Atoms. Timestep: 110
Li -1.735164 -2.525615 2.056671
Li -3.285359 -0.885624 0.331151
Li -0.139637 -0.722819 0.422981
Li 0.041136 -4.263451 0.488336
4
 Atoms. Timestep: 120
Li -1.628776 -2.567823 2.132295
Li -3.354783 -0.859099 0.399637
Li -0.072987 -0.883585 0.434617
Li -0.014194 -4.303633 0.450924
4
 Atoms. Timestep: 130
Li -1.701729 -2.526873 2.095943
Li -3.280315 -0.899195 0.332208
Li -0.040648 -0.793185 0.358908
Li -0.065434 -4.146488 0.499542
4
 Atoms. Timestep: 140
Li -1.695793 -2.578347 2.162043
Li -3.315755 -0.884980 0.389850
Li -0.122678 -0.931056 0.294802
Li 0.002513 -4.090347 0.543785
4
 Atoms. Timestep: 150
Li -1.666436 -2.583916 2.035882
Li -3.272305 -0.792510 0.327292
Li -0.001979 -0.848181 0.370993
Li -0.061312 -4.143665 0.377055
4
 Atoms. Timestep: 160
Li -1.584811 -2.442293 2.076051
Li -3.209346 -0.834986 0.236038
Li 0.033299 -0.737192 0.444520
Li -0.033898 -4.075850 0.504610
4
 Atoms. Timestep: 170
Li -1.679628 -2.516879 2.113892
Li -3.258784 -0.730250 0.322977
Li -0.010598 -0.750967 0.380355
Li -0.176570 -4.067808 0.499063
4
 Atoms. Timestep: 180
Li -1.585051 -2.604473 2.047053
Li -3.231758 -0.788646 0.291745
Li -0.055544 -0.835971 0.331221
Li -0.106961 -4.148581 0.505924
4
 Atoms. Timestep: 190
Li -1.710387 -2.592041 2.105694
Li -3.160539 -0.745933 0.361888
Li -0.082722 -0.759228 0.363540
Li -0.158696 -4.155378 0.573937
4
 Atoms. Timestep: 200
Li -1.536894 -2.399379 2.114009
Li -3.170254 -0.734526 0.294066
Li -0.039032 -0.917353 0.464938
Li -0.157380 -4.102445 0.546011
4
 Atoms. Timestep: 210
Li -1.559881 -2.489349 2.050647
Li -3.157483 -0.842329 0.335399
Li 0.026360 -0.704386 0.344502
Li -0.171560 -4.162288 0.526968
4
 Atoms. Timestep: 220
Li -1.572837 -2.453012 1.990236
Li -3.127536 -0.830901 0.325520
Li 0.034509 -0.739603 0.283288
Li -0.159918 -4.180412 0.487557
4
 Atoms. Timestep: 230
Li -1.536618 -2.574381 2.069070
Li -3.123138 -0.834565 0.260315
Li -0.057285 -0.789973 0.318589
Li -0.167479 -4.060099 0.510654
4
 Atoms. Timestep: 240
Li -1.487795 -2.597097 2.018286
Li -3.088116 -0.810588 0.273265
Li 0.018867 -0.880621 0.376176
Li -0.115366 -4.082077 0.510118
4
 Atoms. Timestep: 250
Li -1.556266 -2.473699 2.087048
Li -2.989642 -0.794689 0.251351
Li -0.224341 -0.729412 0.331308
Li -0.111786 -3.957617 0.565344
4
 Atoms. Timestep: 260
Li -1.474683 -2.396713 2.066750
Li -2.967307 -0.770578 0.255036
Li -0.045165 -0.625865 0.313985
Li -0.119345 -3.939592 0.524357
4
 Atoms. Timestep: 270
Li -1.531716 -2.424938 1.986561
Li -2.991532 -0.793502 0.139618
Li -0.155797 -0.757033 0.304559
Li -0.278673 -3.938101 0.564554
4
 Atoms. Timestep: 280
Li -1.485689 -2.467378 1.960949
Li -2.903223 -0.820632 0.278283
Li -0.049553 -0.763529 0.320026
Li -0.153105 -3.951086 0.595028
4
 Atoms. Timestep: 290
Li -1.456878 -2.330135 2.040465
Li -2.954392 -0.875479 0.260615
Li -0.053479 -0.652107 0.315004
Li -0.271187 -3.879812 0.428307
4
 Atoms. Timestep: 300
Li -1.466903 -2.429881 1.898037
Li -2.942679 -0.797636 0.244610
Li -0.022162 -0.635108 0.285186
Li -0.155444 -3.858579 0.647402
4
 Atoms. Timestep: 310
Li -1.447067 -2.344120 1.896113
Li -2.907188 -0.835044 0.131597
Li -0.114086 -0.673520 0.354534
Li -0.259277 -3.796465 0.604177
4
 Atoms. Timestep: 320
Li -1.456754 -2.322181 1.903250
Li -2.798894 -0.785590 0.194495
Li -0.057242 -0.697012 0.365348
Li -0.234124 -3.857631 0.547357
4
 Atoms. Timestep: 330
Li -1.493642 -2.416952 1.976676
Li -2.715674 -0.823211 0.122820
Li -0.124613 -0.625313 0.349348
Li -0.158028 -3.762077 0.628805
4
 Atoms. Timestep: 340
Li -1.373709 -2.364923 1.968257
Li -2.769518 -0.614208 0.110809
Li -0.213643 -0.576594 0.271935
Li -0.269684 -3.713178 0.575214
4
 Atoms. Timestep: 350
Li -1.431974 -2.320801 1.935982
Li -2.658808 -0.728633 0.149599
Li -0.042551 -0.635323 0.248516
Li -0.146886 -3.732465 0.651837
4
 Atoms. Timestep: 360
Li -1.417345 -2.352091 1.982302
Li -2.746117 -0.792619 0.091916
Li -0.084313 -0.600292 0.267159
Li -0.324813 -3.687982 0.618020
4
 Atoms. Timestep: 370
Li -1.311543 -2.300798 1.881550
Li -2.622367 -0.702762 -0.018525
Li -0.100841 -0.596666 0.294885
Li -0.268863 -3.648042 0.685981
4
 Atoms. Timestep: 380
Li -1.369301 -2.221704 1.978365
Li -2.560652 -0.632539 0.105547
Li -0.060534 -0.420964 0.218351
Li -0.174843 -3.662075 0.666130
4
 Atoms. Timestep: 390
Li -1.280484 -2.189622 1.890461
Li -2.517939 -0.692465 0.023721
Li -0.161700 -0.544913 0.293835
Li -0.288095 -3.465873 0.602567
4
 Atoms. Timestep: 400
Li -1.274228 -2.279130 1.837999
Li -2.423989 -0.736609 0.064235
Li -0.076673 -0.553094 0.240517
Li -0.317847 -3.527292 0.785287
4
 Atoms. Timestep: 410
Li -1.391493 -2.345703 1.870004
Li -2.437284 -0.717124 -0.058524
Li -0.121794 -0.593713 0.230290
Li -0.402110 -3.527029 0.678663
4
 Atoms. Timestep: 420
Li -1.302238 -2.259125 1.906963
Li -2.355595 -0.827368 -0.012602
Li -0.061981 -0.490836 0.224252
Li -0.342565 -3.417135 0.669720
4
 Atoms. Timestep: 430
Li -1.334133 -2.237023 1.827497
Li -2.373146 -0.773765 -0.083775
Li -0.196722 -0.420423 0.182044
Li -0.401259 -3.416547 0.778564
4
 Atoms. Timestep: 440
Li -1.250398 -2.253777 1.857849
Li -2.276575 -0.631635 -0.021465
Li -0.120996 -0.520113 0.127696
Li -0.389813 -3.342419 0.695304
4
 Atoms. Timestep: 450
Li -1.158784 -2.180427 1.820787
Li -2.279656 -0.655252 -0.049785
Li -0.167251 -0.464290 0.170206
Li -0.455888 -3.374035 0.740991
4
 Atoms. Timestep: 460
Li -1.125784 -2.165070 1.828491
Li -2.210163 -0.665971 -0.153472
Li -0.074273 -0.522499 0.221911
Li -0.453309 -3.262888 0.624940
4
 Atoms. Timestep: 470
Li -1.041049 -2.195745 1.765555
Li -2.159881 -0.655623 -0.108764
Li -0.165637 -0.417535 0.230788
Li -0.447830 -3.222952 0.779637
4
 Atoms. Timestep: 480
Li -1.178648 -2.160449 1.783120
Li -2.174620 -0.582351 -0.111644
Li -0.101591 -0.423678 0.163344
Li -0.427135 -3.267596 0.838441
4
 Atoms. Timestep: 490
Li -1.104177 -2.113589 1.812084
Li -2.135623 -0.654841 -0.104040
Li -0.108132 -0.369007 0.101703
Li -0.520169 -3.226827 0.862173
4
 Atoms. Timestep: 500
Li -1.068233 -2.153917 1.698910
Li -1.956845 -0.658452 -0.234247
Li -0.110329 -0.391196 0.120054
Li -0.607398 -3.119798 0.854017
4
 Atoms. Timestep: 510
Li -1.050733 -2.131459 1.717333
Li -2.051986 -0.689827 -0.213600
Li -0.189231 -0.311559 0.173393
Li -0.512878 -3.174499 0.751522
4
 Atoms. Timestep: 520
Li -1.055952 -2.050987 1.666728
Li -1.943715 -0.712948 -0.269960
Li -0.221932 -0.310376 0.103262
Li -0.564924 -3.116048 0.894909
4
 Atoms. Timestep: 530
Li -0.989102 -2.042004 1.743920
Li -1.936154 -0.620096 -0.280106
Li -0.148308 -0.368525 0.115719
Li -0.520680 -2.977597 0.896487
4
 Atoms. Timestep: 540
Li -0.951077 -2.041361 1.665179
Li -1.781837 -0.618555 -0.333408
Li -0.127505 -0.371489 0.108708
Li -0.535705 -2.965571 0.836591
4
 Atoms. Timestep: 550
Li -0.964975 -2.034340 1.617326
Li -1.730145 -0.530809 -0.396897
Li -0.196723 -0.340897 0.149000
Li -0.575663 -3.028485 0.893009
4
 Atoms. Timestep: 560
Li -1.015118 -2.033723 1.604928
Li -1.714142 -0.471453 -0.242440
Li -0.229509 -0.279255 0.112786
Li -0.588206 -2.940268 0.984810
4
 Atoms. Timestep: 570
Li -0.890937 -2.031896 1.671103
Li -1.714317 -0.579011 -0.295260
Li -0.168755 -0.249245 0.065535
Li -0.681251 -2.855176 0.908265
4
 Atoms. Timestep: 580
Li -0.876906 -1.993018 1.760017
Li -1.629333 -0.579706 -0.366340
Li -0.212478 -0.296801 0.087552
Li -0.695706 -2.838676 0.920311
4
 Atoms. Timestep: 590
Li -0.871432 -1.969461 1.629473
Li -1.530431 -0.674586 -0.336025
Li -0.295540 -0.324407 0.033294
Li -0.634200 -2.856546 0.989758
4
 Atoms. Timestep: 600
Li -0.769783 -1.985711 1.632537
Li -1.521905 -0.558141 -0.328743
Li -0.216522 -0.287285 0.013892
Li -0.761510 -2.850771 1.036252
4
 Atoms. Timestep: 610
Li -0.836524 -1.929110 1.625222
Li -1.427330 -0.492377 -0.415914
Li -0.222455 -0.184486 0.072733
Li -0.733685 -2.708397 1.027383
4
 Atoms. Timestep: 620
Li -0.843224 -1.926447 1.618052
Li -1.438276 -0.500730 -0.468602
Li -0.269435 -0.299263 0.080959
Li -0.741473 -2.653917 0.941146
4
 Atoms. Timestep: 630
Li -0.849448 -1.943639 1.488069
Li -1.297526 -0.595262 -0.517402
Li -0.267683 -0.150206 0.031915
Li -0.660545 -2.611816 0.994029
4
 Atoms. Timestep: 640
Li -0.735104 -1.811225 1.520874
Li -1.289447 -0.538389 -0.551000
Li -0.259906 -0.183060 -0.014952
Li -0.792716 -2.609477 0.981119
4
 Atoms. Timestep: 650
Li -0.739400 -1.894659 1.626345
Li -1.252649 -0.401622 -0.587612
Li -0.276909 -0.126149 0.032657
Li -0.750936 -2.590238 1.030016
4
 Atoms. Timestep: 660
Li -0.761821 -1.921966 1.520457
Li -1.177338 -0.505978 -0.605323
Li -0.242078 -0.082728 -0.093171
Li -0.737778 -2.628928 1.098210
4
 Atoms. Timestep: 670
Li -0.660339 -1.866361 1.535375
Li -1.116099 -0.531544 -0.584995
Li -0.274428 -0.088630 -0.045586
Li -0.780024 -2.441796 1.038559
4
 Atoms. Timestep: 680
Li -0.612231 -1.903532 1.499976
Li -1.127870 -0.443661 -0.668460
Li -0.272601 -0.040154 -0.031012
Li -0.865671 -2.465110 1.037245
4
 Atoms. Timestep: 690
Li -0.743362 -1.822875 1.537696
Li -0.992948 -0.415981 -0.632390
Li -0.295952 -0.027439 -0.051174
Li -0.889925 -2.356400 1.062371
4
 Atoms. Timestep: 700
Li -0.617062 -1.797398 1.482478
Li -0.875175 -0.500383 -0.645949
Li -0.314961 -0.049735 -0.166703
Li -0.784939 -2.407175 1.020412
4
 Atoms. Timestep: 710
Li -0.611283 -1.750466 1.490849
Li -0.879467 -0.376954 -0.706158
Li -0.268908 0.041705 -0.043625
Li -0.918159 -2.353232 1.118521
4
 Atoms. Timestep: 720
Li -0.545360 -1.769707 1.449512
Li -0.996047 -0.478901 -0.794936
Li -0.220013 -0.126300 -0.108452
Li -0.916999 -2.287446 1.175497
4
 Atoms. Timestep: 730
Li -0.486156 -1.872305 1.481199
Li -0.776637 -0.455307 -0.732394
Li -0.338807 0.051614 -0.077492
Li -0.946660 -2.183139 1.102676
4
 Atoms. Timestep: 740
Li -0.597303 -1.730564 1.447863
Li -0.713536 -0.479498 -0.744147
Li -0.416302 -0.028943 -0.042938
Li -0.947278 -2.187552 1.170558
4
 Atoms. Timestep: 750
Li -0.529865 -1.793706 1.301187
Li -0.761212 -0.526634 -0.876039
Li -0.412048 0.007257 -0.062195
Li -0.894686 -2.121069 1.232211
4
 Atoms. Timestep: 760
Li -0.470993 -1.779970 1.359356
Li -0.649968 -0.445883 -0.723687
Li -0.306867 0.060666 -0.178669
Li -1.034675 -2.140429 1.216650
4
 Atoms. Timestep: 770
Li -0.507022 -1.701518 1.405582
Li -0.563925 -0.262559 -0.814485
Li -0.366283 0.098395 -0.144599
Li -1.030873 -2.040844 1.231663
4
 Atoms. Timestep: 780
Li -0.466080 -1.671035 1.345974
Li -0.564505 -0.314340 -0.858798
Li -0.342022 0.071515 -0.129620
Li -1.084586 -1.900115 1.278977
4
 Atoms. Timestep: 790
Li -0.505171 -1.587291 1.404987
Li -0.563072 -0.387311 -0.843746
Li -0.346934 0.089780 -0.154790
Li -0.979973 -1.985855 1.180648
4
 Atoms. Timestep: 800
Li -0.539144 -1.635239 1.295934
Li -0.339709 -0.432845 -0.898312
Li -0.327895 0.192215 -0.174105
Li -1.126737 -1.943980 1.329944
4
 Atoms. Timestep: 810
Li -0.403330 -1.567838 1.337654
Li -0.465874 -0.360439 -0.889309
Li -0.383812 0.150753 -0.198840
Li -1.112609 -1.847029 1.223316
4
 Atoms. Timestep: 820
Li -0.240020 -1.584528 1.299205
Li -0.335875 -0.419519 -0.903028
Li -0.378634 0.108894 -0.140583
Li -1.104576 -1.888708 1.260681
4
 Atoms. Timestep: 830
Li -0.359221 -1.538499 1.204358
Li -0.311331 -0.272717 -0.923067
Li -0.370838 0.251304 -0.173985
Li -1.232106 -1.800051 1.345647
4
 Atoms. Timestep: 840
Li -0.333018 -1.647111 1.200042
Li -0.293103 -0.385986 -0.941116
Li -0.248019 0.313936 -0.300474
Li -1.115301 -1.833070 1.337861
4
 Atoms. Timestep: 850
Li -0.328070 -1.550614 1.366128
Li -0.217851 -0.255533 -1.010610
Li -0.377441 0.230954 -0.276958
Li -1.206899 -1.731087 1.326783
4
 Atoms. Timestep: 860
Li -0.208207 -1.628624 1.193893
Li -0.191785 -0.421130 -0.944278
Li -0.306344 0.283858 -0.267047
Li -1.208926 -1.720653 1.334977
4
 Atoms. Timestep: 870
Li -0.229388 -1.501840 1.129130
Li -0.027115 -0.366899 -1.015215
Li -0.363002 0.302760 -0.347819
Li -1.194236 -1.671724 1.393091
4
 Atoms. Timestep: 880
Li -0.178504 -1.536004 1.218975
Li 0.048393 -0.312284 -1.073127
Li -0.424064 0.200510 -0.312560
Li -1.226611 -1.577139 1.424413
4
 Atoms. Timestep: 890
Li -0.175506 -1.453457 1.206308
Li 0.028075 -0.313460 -1.158078
Li -0.466543 0.321001 -0.304749
Li -1.294288 -1.462574 1.428899
4
 Atoms. Timestep: 900
Li -0.164380 -1.495346 1.122391
Li 0.131269 -0.242609 -1.175174
Li -0.392051 0.268946 -0.283001
Li -1.264509 -1.446963 1.435387
4
 Atoms. Timestep: 910
Li -0.170369 -1.533040 1.149055
Li 0.165766 -0.233715 -1.209103
Li -0.444419 0.343142 -0.323571
Li -1.212571 -1.460320 1.520032
4
 Atoms. Timestep: 920
Li -0.103952 -1.369315 1.164900
Li 0.178599 -0.306196 -1.121283
Li -0.404087 0.271983 -0.364165
Li -1.301945 -1.444811 1.497288
4
 Atoms. Timestep: 930
Li -0.032846 -1.479888 1.008649
Li 0.251585 -0.297349 -1.148588
Li -0.565446 0.379538 -0.309039
Li -1.316777 -1.363037 1.470448
4
 Atoms. Timestep: 940
Li 0.022989 -1.404660 1.107022
Li 0.267753 -0.283759 -1.211995
Li -0.446579 0.358901 -0.323334
Li -1.277174 -1.272070 1.378594
4
 Atoms. Timestep: 950
Li -0.033017 -1.415991 1.133869
Li 0.299882 -0.293592 -1.261992
Li -0.377965 0.513435 -0.324204
Li -1.341810 -1.339274 1.464686
4
 Atoms. Timestep: 960
Li -0.040802 -1.413116 1.171834
Li 0.386625 -0.266144 -1.222759
Li -0.379111 0.513269 -0.271911
Li -1.299932 -1.195816 1.459285
4
 Atoms. Timestep: 970
Li -0.029852 -1.376263 1.066426
Li 0.421940 -0.243562 -1.296727
Li -0.458866 0.458735 -0.382542
Li -1.383642 -1.186009 1.569902
4
 Atoms. Timestep: 980
Li -0.059497 -1.441960 1.059964
Li 0.317650 -0.197164 -1.318856
Li -0.465516 0.451323 -0.374985
Li -1.377645 -1.077054 1.607186
4
 Atoms. Timestep: 990
Li 0.100588 -1.426842 0.987963
Li 0.572962 -0.206476 -1.336941
Li -0.434540 0.457369 -0.353029
Li -1.525504 -1.193851 1.553181
4
 Atoms. Timestep: 1000
Li 0.028241 -1.385528 1.036423
Li 0.563351 -0.208125 -1.354719
Li -0.553173 0.452763 -0.339310
Li -1.389739 -1.057951 1.607420
4
 Atoms. Timestep: 1010
Li -0.005780 -1.364668 1.100600
Li 0.561836 -0.182603 -1.418966
Li -0.462785 0.491016 -0.345321
Li -1.382077 -1.044592 1.578138
4
 Atoms. Timestep: 1020
Li 0.069992 -1.344280 0.960381
Li 0.631558 -0.263963 -1.411723
Li -0.468738 0.571257 -0.311677
Li -1.503623 -1.020669 1.561273
4
 Atoms. Timestep: 1030
Li 0.118030 -1.317441 0.851215
Li 0.675569 -0.278844 -1.466767
Li -0.520070 0.559675 -0.387039
Li -1.580191 -0.915454 1.616839
4
 Atoms. Timestep: 1040
Li 0.177182 -1.300395 1.018032
Li 0.785045 -0.204005 -1.439419
Li -0.561512 0.492083 -0.391838
Li -1.493704 -0.909897 1.562159
4
 Atoms. Timestep: 1050
Li 0.132902 -1.388158 0.827705
Li 0.866170 -0.247477 -1.426862
Li -0.492071 0.612011 -0.445458
Li -1.535992 -0.816385 1.585801
4
 Atoms. Timestep: 1060
Li 0.202521 -1.242324 1.022408
Li 0.806064 -0.129591 -1.473117
Li -0.464396 0.609984 -0.475299
Li -1.584309 -0.906689 1.677787
4
 Atoms. Timestep: 1070
Li 0.151527 -1.233402 0.858159
Li 0.966812 -0.160742 -1.526532
Li -0.479258 0.649386 -0.415893
Li -1.636012 -0.799879 1.611214
4
 Atoms. Timestep: 1080
Li 0.220153 -1.239949 0.914216
Li 0.964369 -0.168678 -1.564861
Li -0.446334 0.630903 -0.387074
Li -1.537024 -0.790246 1.577465
4
 Atoms. Timestep: 1090
Li 0.235573 -1.225508 0.995459
Li 0.925033 -0.169320 -1.557982
Li -0.490177 0.664896 -0.476670
Li -1.667110 -0.765098 1.733372
4
 Atoms. Timestep: 1100
Li 0.208437 -1.277754 0.928164
Li 1.020608 -0.204346 -1.539701
Li -0.544197 0.608020 -0.516673
Li -1.604079 -0.764549 1.663986
4
 Atoms. Timestep: 1110
Li 0.159076 -1.227274 0.977659
Li 1.074189 -0.100526 -1.576551
Li -0.554473 0.579750 -0.387246
Li -1.571962 -0.719201 1.676095
4
 Atoms. Timestep: 1120
Li 0.334942 -1.134526 0.859708
Li 1.134583 -0.224837 -1.602679
Li -0.553389 0.681295 -0.384569
Li -1.639550 -0.628408 1.667308
4
 Atoms. Timestep: 1130
Li 0.345624 -1.101772 0.907101
Li 1.058897 -0.173920 -1.581492
Li -0.592602 0.607421 -0.367860
Li -1.628179 -0.687515 1.735142
4
 Atoms. Timestep: 1140
Li 0.337133 -1.272491 0.877059
Li 1.212622 -0.123174 -1.553051
Li -0.543096 0.721623 -0.491113
Li -1.672991 -0.627946 1.708542
4
 Atoms. Timestep: 1150
Li 0.281344 -1.144479 0.762458
Li 1.192217 -0.179519 -1.627718
Li -0.565356 0.651521 -0.498281
Li -1.597896 -0.588839 1.667834
4
 Atoms. Timestep: 1160
Li 0.384369 -1.113901 0.862149
Li 1.228926 -0.090113 -1.614843
Li -0.587703 0.786195 -0.644918
Li -1.616855 -0.568973 1.730755
4
 Atoms. Timestep: 1170
Li 0.381654 -1.161564 0.767635
Li 1.208927 -0.115662 -1.523687
Li -0.612869 0.779494 -0.535943
Li -1.739443 -0.605313 1.722889
4
 Atoms. Timestep: 1180
Li 0.316909 -1.193462 0.846266
Li 1.294240 -0.034023 -1.706127
Li -0.596575 0.777463 -0.612288
Li -1.742624 -0.483963 1.778994
4
 Atoms. Timestep: 1190
Li 0.410475 -1.045886 0.811771
Li 1.313905 -0.165810 -1.636682
Li -0.571385 0.731625 -0.518069
Li -1.732824 -0.548006 1.737528
4
 Atoms. Timestep: 1200
Li 0.480655 -1.077008 0.787292
Li 1.356403 -0.078342 -1.616129
Li -0.615087 0.794389 -0.548471
Li -1.712807 -0.366742 1.759690
4
 Atoms. Timestep: 1210
Li 0.392971 -0.984183 0.785430
Li 1.487555 -0.098710 -1.645409
Li -0.586527 0.798860 -0.553375
Li -1.764376 -0.462042 1.893768
4
 Atoms. Timestep: 1220
Li 0.363140 -1.027575 0.811927
Li 1.305870 -0.153158 -1.670379
Li -0.610495 0.721956 -0.556749
Li -1.809694 -0.386236 1.781105
4
 Atoms. Timestep: 1230
Li 0.467637 -1.051021 0.826822
Li 1.485410 -0.092643 -1.816823
Li -0.634837 0.775162 -0.521500
Li -1.724345 -0.410215 1.791337
4
 Atoms. Timestep: 1240
Li 0.509923 -0.996299 0.799450
Li 1.545232 -0.049598 -1.751781
Li -0.617355 0.868814 -0.507529
Li -1.859179 -0.382926 1.867935
4
 Atoms. Timestep: 1250
Li 0.480820 -1.075098 0.667527
Li 1.544629 -0.054352 -1.657547
Li -0.694365 0.865970 -0.605284
Li -1.718025 -0.257274 1.803163
4
 Atoms. Timestep: 1260
Li 0.485909 -0.950213 0.759339
Li 1.498681 -0.132956 -1.890711
Li -0.666590 0.850955 -0.532323
Li -1.897528 -0.255474 1.834936
4
 Atoms. Timestep: 1270
Li 0.652207 -1.037866 0.663137
Li 1.592743 -0.075230 -1.745772
Li -0.583212 0.782087 -0.595920
Li -1.887943 -0.256012 1.876901
4
 Atoms. Timestep: 1280
Li 0.523810 -0.991889 0.791942
Li 1.682543 -0.090048 -1.796197
Li -0.581909 0.851146 -0.754575
Li -1.837815 -0.201355 1.868775
4
 Atoms. Timestep: 1290
Li 0.585265 -1.004832 0.761094
Li 1.614627 -0.052659 -1.808112
Li -0.592110 0.922433 -0.525711
Li -1.759477 -0.149676 1.830432
4
 Atoms. Timestep: 1300
Li 0.542781 -1.049758 0.808267
Li 1.699313 0.004010 -1.812824
Li -0.612268 0.864964 -0.531894
Li -1.904164 -0.203091 1.812118
4
 Atoms. Timestep: 1310
Li 0.552930 -0.894662 0.697671
Li 1.729139 -0.069221 -1.866853
Li -0.722689 0.868781 -0.640831
Li -1.869108 -0.093471 1.783193
4
 Atoms. Timestep: 1320
Li 0.580627 -0.943687 0.593658
Li 1.777071 -0.096363 -1.800910
Li -0.600505 0.865037 -0.607349
Li -1.815611 -0.200480 1.822462
4
 Atoms. Timestep: 1330
Li 0.562619 -0.950838 0.640905
Li 1.697353 -0.024704 -1.845973
Li -0.617022 0.939095 -0.659767
Li -1.934686 -0.220811 2.002755
4
 Atoms. Timestep: 1340
Li 0.709100 -0.968764 0.763453
Li 1.815964 -0.018031 -1.916715
Li -0.610121 0.896914 -0.640474
Li -1.881466 -0.096999 1.899081
4
 Atoms. Timestep: 1350
Li 0.672813 -0.938314 0.667218
Li 1.742271 -0.110675 -1.898699
Li -0.599521 0.947245 -0.601288
Li -1.841565 -0.109225 1.787321
4
 Atoms. Timestep: 1360
Li 0.568671 -1.005672 0.744898
Li 1.801385 -0.056317 -1.890734
Li -0.623418 0.934020 -0.612747
Li -1.985307 -0.209183 1.981259
4
 Atoms. Timestep: 1370
Li 0.562964 -0.918579 0.670348
Li 1.816146 0.011042 -1.881768
Li -0.678057 0.948498 -0.600200
Li -1.887952 -0.060735 1.865027
4
 Atoms. Timestep: 1380
Li 0.680145 -0.904233 0.685011
Li 1.851918 0.064958 -1.954589
Li -0.666438 0.918879 -0.683072
Li -1.885773 -0.023628 1.947122
4
 Atoms. Timestep: 1390
Li 0.569734 -0.934151 0.627599
Li 1.897349 -0.076818 -1.839893
Li -0.716814 0.946838 -0.582146
Li -1.921975 -0.005335 1.937774
4
 Atoms. Timestep: 1400
Li 0.688425 -0.902128 0.672297
Li 2.011926 0.081165 -1.890622
Li -0.619809 0.967153 -0.668945
Li -1.929329 -0.084914 1.853796
4
 Atoms. Timestep: 1410
Li 0.677320 -0.854487 0.598908
Li 1.803003 -0.054151 -1.953403
Li -0.647001 0.909159 -0.655272
Li -1.804869 -0.069543 2.018983
4
 Atoms. Timestep: 1420
Li 0.656857 -0.918696 0.690167
Li 1.946505 0.047590 -1.841417
Li -0.684911 0.980654 -0.578285
Li -1.881100 -0.066881 1.908432
4
 Atoms. Timestep: 1430
Li 0.617148 -1.031739 0.707944
Li 1.890175 0.014330 -1.877062
Li -0.656538 0.954003 -0.691289
Li -1.888497 0.001360 1.809282
4
 Atoms. Timestep: 1440
Li 0.710190 -1.032380 0.587665
Li 1.932917 -0.101565 -2.003342
Li -0.744324 0.887723 -0.699152
Li -1.876573 -0.005244 1.890385
4
 Atoms. Timestep: 1450
Li 0.749704 -0.819712 0.690269
Li 1.866722 0.008834 -1.956007
Li -0.649615 0.964146 -0.662343
Li -1.979372 -0.014567 1.963838
4
 Atoms. Timestep: 1460
Li 0.615880 -0.899729 0.636427
Li 1.867713 0.017738 -1.937284
Li -0.635222 0.925129 -0.665660
Li -1.969103 -0.048067 1.983497
4
 Atoms. Timestep: 1470
Li 0.660479 -0.964956 0.718106
Li 1.897034 0.016320 -1.948625
Li -0.653683 0.993362 -0.708086
Li -1.934868 -0.092864 1.875731
4
 Atoms. Timestep: 1480
Li 0.669056 -0.958334 0.619982
Li 1.907445 0.030848 -1.864981
Li -0.618255 0.887905 -0.777341
Li -1.911407 0.033474 1.898127
4
 Atoms. Timestep: 1490
Li 0.726522 -0.928265 0.571121
Li 1.919391 0.005102 -1.871579
Li -0.707421 0.948783 -0.653488
Li -1.889288 -0.107213 1.900936
