3
Generated trajectory
Li      0.999493890906605      0.996714813367941      1.095053339913564
Li      1.986127859665342      1.977747132374027      1.931784932573214
Li      2.984225113050805      2.959577858421194      3.031573470940979
3
Generated trajectory
Li      0.974151570438889      1.033474165349640      0.942271244916030
Li      2.039527459634396      2.061887739468585      2.020964560130617
Li      2.946812012524591      3.091777336193801      3.024230765007916
3
Generated trajectory
Li      1.013245785171751      1.022051722213502      1.011626534134239
Li      2.017933253470687      1.996298919529560      2.003912812555109
Li      3.037003420855414      3.065307198383393      3.039216689821037
3
Generated trajectory
Li      0.995114530045819      0.969447134160313      1.027396122348317
Li      2.002325122142015      2.033494109764173      2.126574250512181
Li      2.934817559069751      3.058726448628220      3.028856287851751
3
Generated trajectory
Li      0.979146332687356      0.956513051260216      1.010893500590111
Li      2.149086159465216      1.941224856102144      1.998169389057590
Li      3.058049233401613      2.954546304015560      3.078005890141278
3
Generated trajectory
Li      0.947126024511166      0.994198490676819      1.057469870460146
Li      1.977125702720561      1.879181336941135      1.933605392302256
Li      3.052115663108050      3.004567376064283      3.008178286437985
3
Generated trajectory
Li      0.945466756950225      1.042260229001748      1.042441691794993
Li      1.971748826585028      1.929643344855056      1.977402079706238
Li      2.965339277239160      2.918684244252651      2.898617977597910
3
Generated trajectory
Li      1.006443792809564      1.070335675320033      0.935998099173590
Li      1.979418455470172      1.991950252795492      1.920583897761335
Li      2.984946655999941      3.024069429809314      2.992040294503021
3
Generated trajectory
Li      0.902101693898074      0.979126571662605      0.998648489783549
Li      2.031349489627835      1.950725988454492      1.947500142379142
Li      2.974409508990053      2.973786196091867      3.010430298528232
3
Generated trajectory
Li      1.031670543575320      0.998612967183923      0.928940714515404
Li      2.029001288222792      2.058519975009925      1.948984101504555
Li      2.972264040886245      2.993864441664344      2.922364911858343
3
Generated trajectory
Li      0.996424603042379      0.946767709592895      0.939774210327087
Li      1.967517497882394      1.917607634325587      1.927571389477527
Li      2.925744670807069      2.986634863436543      2.889307527047873
3
Generated trajectory
Li      1.010711965884921      1.003863000812437      0.872599717233082
Li      2.035361731797831      1.949813440500943      1.982313008372860
Li      2.932784668565463      2.908177350917206      2.996008178183598
3
Generated trajectory
Li      0.953889981363806      0.896531597053155      1.056644554959478
Li      1.980764920763631      2.011104037148867      1.939027136766128
Li      2.979031278001122      2.875126372711299      2.805372771315263
3
Generated trajectory
Li      0.952912881839270      1.063018547700848      0.989632672826956
Li      2.028077964186974      1.939575945112850      1.895348958126498
Li      3.029325703350010      2.851994453965474      2.952480729651826
3
Generated trajectory
Li      0.838676633849721      0.815818747615043      0.899940381341479
Li      2.023577706859102      1.941158582886160      1.844776593432705
Li      2.826809362455321      2.949242286065523      2.808145234633179
3
Generated trajectory
Li      1.010349223860200      0.996631570570339      0.906737484500145
Li      2.050426832499181      1.900953407555067      1.900344612602721
Li      2.840063935976121      2.922150075285416      2.896274719842580
3
Generated trajectory
Li      1.047901601325980      1.038319832733397      0.967923217111712
Li      2.058670225997784      1.817801574332291      1.917282389905886
Li      2.883544840894854      2.934203144351132      2.839053491558693
3
Generated trajectory
Li      0.943000810181726      0.921762827344397      0.860121271339400
Li      2.103111703873159      1.824779774977967      1.896782069661512
Li      2.878864542991245      2.851799585443585      2.815641582881884
3
Generated trajectory
Li      0.870978190158166      0.950307740752932      0.980899631081192
Li      2.025238603446179      1.844081914736564      1.880500749751969
Li      2.955986746405770      2.955428405137788      2.792954963754288
3
Generated trajectory
Li      0.853613591205289      0.913095532236207      0.953273585034166
Li      2.001390098231965      1.869922646410071      1.721526206533186
Li      2.827893293825464      2.915286753659698      2.756644207379495
3
Generated trajectory
Li      0.920394779658525      0.950186647896739      0.865854068932233
Li      2.072891266187750      1.724128858538541      1.836108679460249
Li      2.812458334199440      2.951509133075420      2.695918869342958
3
Generated trajectory
Li      0.818348231138481      0.828806932663597      0.901984168424829
Li      2.084632499377917      1.798285980440887      1.768119738495685
Li      2.836003830701502      2.947270461392576      2.682669175833639
3
Generated trajectory
Li      0.864063807479215      0.913040000349564      0.970099852623950
Li      2.060062387387569      1.738636953215817      1.713571043838567
Li      2.793873093775923      2.925216416913946      2.580274143944753
3
Generated trajectory
Li      0.918295787075172      1.020799755499533      0.908330454521198
Li      2.085105199712017      1.744184826954070      1.736684352485367
Li      2.716486166352902      2.872720645627413      2.686232045516802
3
Generated trajectory
Li      0.935948834288951      0.928396710875211      0.883078937769930
Li      2.037998962074401      1.698187772670881      1.658442990870393
Li      2.718345743912491      2.804230936653366      2.514392794533621
3
Generated trajectory
Li      0.888897839261820      0.732118954309251      0.826457553388121
Li      2.149406846177440      1.719474946574670      1.799444351168155
Li      2.742564969671712      2.869593891225426      2.560786400309132
3
Generated trajectory
Li      0.885165624731826      0.821969346602404      0.942530845174628
Li      2.095117665638685      1.572424398513313      1.644461353539906
Li      2.684931277813641      2.887709393403863      2.429745791518856
3
Generated trajectory
Li      0.844016342239517      0.847066844592111      0.848248967334651
Li      2.085878568918598      1.695506826037566      1.667157272313351
Li      2.715873713537679      2.922938526112806      2.550297948172138
3
Generated trajectory
Li      0.760804510522212      0.870091199052052      0.890093399139055
Li      2.183114690323118      1.620965382973270      1.603154283851946
Li      2.611867768838801      2.932679407307851      2.443173744991443
3
Generated trajectory
Li      0.773357071592647      0.715899953976192      0.851201223383463
Li      2.045511929152979      1.629047754720055      1.693062928462478
Li      2.637331381488385      2.776535368368990      2.479765665552223
3
Generated trajectory
Li      0.848884939070455      0.777179861350543      0.787447192600418
Li      2.086330338597123      1.608913128989515      1.501610839394701
Li      2.699833446932483      2.849047427162985      2.442174496334578
3
Generated trajectory
Li      0.804011461695428      0.812848926324045      0.854918861128394
Li      2.194505613785366      1.605915913918542      1.579586755997423
Li      2.608461173478972      2.766193344136516      2.363539066407731
3
Generated trajectory
Li      0.863361992198701      0.786721093550610      0.800021409137237
Li      2.074973783933248      1.487536834026471      1.559718282196924
Li      2.598468291083905      2.856000911258116      2.247129358577931
3
Generated trajectory
Li      0.753461215952383      0.753730786041430      0.784570708522851
Li      2.110717118723208      1.480918438022071      1.435260815253841
Li      2.553609401330224      2.723415117277860      2.224222615422393
3
Generated trajectory
Li      0.756778139760802      0.663885705140829      0.723184690140988
Li      2.123786232599155      1.487881907070511      1.511421099168144
Li      2.504948252029255      2.771531931644998      2.234325701424909
3
Generated trajectory
Li      0.781485459101573      0.722615845114730      0.656901723054987
Li      2.082099299801321      1.459470516602869      1.411473061405923
Li      2.609457398017157      2.800646906042958      2.198250102802375
3
Generated trajectory
Li      0.654882368082153      0.778598330148073      0.622937109311293
Li      2.040612473438099      1.381193421195273      1.481241558562453
Li      2.562908978373800      2.808781968852746      2.141809936604992
3
Generated trajectory
Li      0.643113331572959      0.606638927849568      0.675212238699932
Li      2.192093297965856      1.339455140683083      1.289697973728532
Li      2.375479107560315      2.815999160375775      2.125502312287403
3
Generated trajectory
Li      0.717118644965890      0.717099358058109      0.704175740251766
Li      2.186076675704478      1.305678521251977      1.332531900737755
Li      2.510642892791337      2.737427598232389      1.980304260176362
3
Generated trajectory
Li      0.681987052708064      0.619084018962266      0.737337464571530
Li      2.250712465266101      1.304127171743914      1.253687490878130
Li      2.420561024568337      2.711485208975670      1.983001835784016
3
Generated trajectory
Li      0.695235218329776      0.692623453012353      0.509543826932937
Li      2.135976606103753      1.295993196621531      1.391164285344332
Li      2.394630528835249      2.748364855294047      2.038322515389560
3
Generated trajectory
Li      0.601557380488979      0.573370201949417      0.637407663559530
Li      2.119586589847866      1.305531148301341      1.262190309365244
Li      2.283942623044512      2.655290866917737      1.917126597137152
3
Generated trajectory
Li      0.628483138110071      0.511082403500085      0.623629331538197
Li      2.142001465585262      1.281242432044815      1.230188869921130
Li      2.262625878810659      2.700681419265433      1.868872878878811
3
Generated trajectory
Li      0.569566839178373      0.641647807375394      0.625468543618138
Li      2.178122233885501      1.162491173694414      1.231977839154865
Li      2.273482432475746      2.642807476402159      1.911809652599436
3
Generated trajectory
Li      0.612885898770167      0.550395285323427      0.683295397186425
Li      2.210642974620500      1.154093945944150      1.248498574847743
Li      2.401651998640278      2.589604521383092      1.764536920275630
3
Generated trajectory
Li      0.530287402374275      0.550608136570364      0.633625618087700
Li      2.193268324387390      1.163062649380081      1.166303070178826
Li      2.225578531580992      2.576951884001836      1.676239690010679
3
Generated trajectory
Li      0.581927755741061      0.544602781860657      0.579488178528657
Li      2.269158093153992      1.080843004518673      1.105548562338058
Li      2.251564230615393      2.644585706672101      1.586173817266026
3
Generated trajectory
Li      0.450973206675287      0.590202983112042      0.635066630158788
Li      2.313314603482039      1.066678085982234      1.028144867284230
Li      2.165304853733777      2.734171817356101      1.634296004971242
3
Generated trajectory
Li      0.483277332661399      0.526039983854048      0.468962992418888
Li      2.203199285651346      1.014043239173199      1.041135899793018
Li      2.210231655362410      2.630800356757659      1.520846522024551
3
Generated trajectory
Li      0.447453186759142      0.540950550419606      0.517726750254763
Li      2.162696486447865      0.965107434769314      1.003546121983341
Li      2.121272149159610      2.549028863153920      1.475827369504845
3
Generated trajectory
Li      0.554346662104814      0.504235311115557      0.532220988779527
Li      2.340983809127245      0.924499188644579      1.021690423262875
Li      2.152814198164747      2.593130895251341      1.480442568502642
3
Generated trajectory
Li      0.437849307644969      0.400702819344975      0.498116311628771
Li      2.254191216428928      0.890261791785263      0.934748452405864
Li      2.050238843696380      2.605203885054300      1.425014330779836
3
Generated trajectory
Li      0.524228725695190      0.485670843295756      0.448942130493327
Li      2.362347592270535      0.951712089731268      0.950233332991863
Li      2.078033696824114      2.580766843242573      1.386175461914081
3
Generated trajectory
Li      0.524650110969112      0.446250274399710      0.337852893867501
Li      2.245203844800369      0.945784234260384      0.886064367678103
Li      2.011207731209081      2.469266162763244      1.304522048311568
3
Generated trajectory
Li      0.582259365831925      0.411832462732711      0.414921246459281
Li      2.290779667989295      0.819305239486940      0.834650036513948
Li      1.969498058900369      2.515374402790750      1.265673490933459
3
Generated trajectory
Li      0.381705138895689      0.467923410281020      0.383710036617859
Li      2.384117159750958      0.813085380744866      0.794241426154319
Li      1.975371859076398      2.451057993634751      1.212614111470348
3
Generated trajectory
Li      0.457526710178299      0.432314922940664      0.367912065427389
Li      2.366899069902068      0.811431954378184      0.755652117111737
Li      1.921357987180970      2.410963803820894      1.193218092360768
3
Generated trajectory
Li      0.419157475249427      0.369974061338827      0.357688476419518
Li      2.360750443893039      0.744146465087826      0.736349280373547
Li      1.850164041650577      2.483558893810286      1.185205612573161
3
Generated trajectory
Li      0.342506247922902      0.429397981581482      0.319896864279168
Li      2.219341877075766      0.727562754679174      0.825754039719899
Li      1.899794957283466      2.403262582680494      1.038022286195638
3
Generated trajectory
Li      0.368805208977716      0.327826638055944      0.364645028272873
Li      2.416951051415882      0.680248825110467      0.770445379284490
Li      1.943917722463560      2.450589802041207      0.994804736299374
3
Generated trajectory
Li      0.359364283227686      0.356835273650365      0.267483075836582
Li      2.248063692971313      0.637320127990855      0.706852121630739
Li      1.847470300183214      2.481873260687979      1.044951470991021
3
Generated trajectory
Li      0.374601934825277      0.363114445714050      0.356673331036756
Li      2.350734241077150      0.720697356902391      0.676603350586301
Li      1.740870795229621      2.420217899887505      0.955535120653960
3
Generated trajectory
Li      0.229009446978621      0.267334171219402      0.391131366196803
Li      2.319952282099560      0.632020126699834      0.690358112394292
Li      1.810552623912451      2.446729048410060      0.853227454935253
3
Generated trajectory
Li      0.379041878419011      0.299436878659818      0.310353061923873
Li      2.415851806338072      0.598262103244191      0.610818365508068
Li      1.748448276249207      2.481883969557814      0.832428174276105
3
Generated trajectory
Li      0.285874233424854      0.275540665490820      0.253274873264513
Li      2.367467308700570      0.618838447804020      0.571591096005175
Li      1.665886880575196      2.386299250488923      0.767556481900854
3
Generated trajectory
Li      0.263987177952685      0.306558663555047      0.341228114996773
Li      2.342361345433069      0.624721191986314      0.503208493430386
Li      1.700300218713553      2.494010187114953      0.823440838449712
3
Generated trajectory
Li      0.270514912197609      0.378155225029077      0.272191318647849
Li      2.330097794042633      0.455463720420442      0.496548183795057
Li      1.749900629869262      2.388986849398634      0.786044728611788
3
Generated trajectory
Li      0.217850465328231      0.203574248030712      0.338659841028625
Li      2.416691715828770      0.480280806369205      0.427774593081586
Li      1.632155461020521      2.394156799866413      0.691866137125957
3
Generated trajectory
Li      0.218511331701393      0.247153160873655      0.235858689821300
Li      2.378937264371288      0.411691122117995      0.427077926457869
Li      1.705279443932482      2.387239581801038      0.718795491011595
3
Generated trajectory
Li      0.205883729891494      0.110526925983782      0.264663998118273
Li      2.375622856803971      0.487352732444007      0.366731636038308
Li      1.624822691801046      2.395879611093150      0.609726254041787
3
Generated trajectory
Li      0.159245388822822      0.168663532925569      0.278167944571682
Li      2.363299315256257      0.370384825674688      0.439641330076568
Li      1.595227557842819      2.286084220364358      0.565871496155926
3
Generated trajectory
Li      0.180672180697359      0.187620663233634      0.189474393022754
Li      2.475229650288875      0.366066253727540      0.407148580859882
Li      1.621395022546962      2.328232088462438      0.466515147755016
3
Generated trajectory
Li      0.139539910504584      0.217771246957039      0.187385119369139
Li      2.354199745760100      0.371571049305892      0.286047671917098
Li      1.515225600194072      2.325183495476653      0.573024294759592
3
Generated trajectory
Li      0.141645335801267      0.233054374180587      0.130877986216622
Li      2.367508067901704      0.301677345791465      0.331018945961772
Li      1.525037113131783      2.357933737767336      0.488172318956469
3
Generated trajectory
Li      0.244308621931826      0.075138336312940      0.181002886127730
Li      2.496266216255391      0.315962502725353      0.334160531574316
Li      1.526598437775429      2.273956476369063      0.445581489969877
3
Generated trajectory
Li      0.163457762898835      0.216221890624882      0.126511990232482
Li      2.484559951556439      0.301946169429090      0.380185586179210
Li      1.409892977289519      2.238222954656261      0.413663453482900
3
Generated trajectory
Li      0.093477534997100      0.149063744923696      0.204675967721522
Li      2.451060641117426      0.203038789785310      0.282441441420512
Li      1.466747393713350      2.358924157874200      0.321841187334621
3
Generated trajectory
Li      0.147647160056559      0.092004835452370      0.114117299639882
Li      2.307471814415214      0.294913841415614      0.287542074114964
Li      1.409016646212076      2.323588449313436      0.323689560816712
3
Generated trajectory
Li      0.027871077419042      0.100951899877572      0.075390611662346
Li      2.510501778066635      0.260505415242100      0.251083728173480
Li      1.495882617193725      2.233916017558047      0.347085846418844
3
Generated trajectory
Li      0.076024108420171      0.120632395125987      0.102477531476316
Li      2.479812039553218      0.227303448734043      0.147221488317085
Li      1.386723423200593      2.271103764560141      0.320677364605972
3
Generated trajectory
Li      0.143501880408838      0.078703635838524      0.085437389980370
Li      2.443167731101515      0.182778903297311      0.177841237826455
Li      1.434550435534108      2.178365588859499      0.278901360914745
3
Generated trajectory
Li      0.074268603501727      0.047844445042941      0.111878538258486
Li      2.478443173253147      0.203942181919538      0.189969835760593
Li      1.427897558221724      2.235162114718532      0.281522830103654
3
Generated trajectory
Li      0.047914022022458      0.063822532792663      0.011983918741839
Li      2.482269130976928      0.084159454745247      0.110890138457163
Li      1.339338041359874      2.233743267475289      0.157207456013026
3
Generated trajectory
Li      0.056449385498558      0.148699408295151      0.009433094074580
Li      2.441899484647741      0.122640287802543      0.176580925869486
Li      1.397195993212705      2.227116369476595      0.217147360202240
3
Generated trajectory
Li      0.036663236418590      0.069421787431074      0.074373351384721
Li      2.518150699058658      0.170656196153973      0.130205759588158
Li      1.287057861768311      2.261667940888226      0.199226849238811
3
Generated trajectory
Li      0.093920009184673      0.070602694206146      0.023845218516658
Li      2.472377818856443      0.068469516579963      0.039160709720353
Li      1.283804097459432      2.183139158494135      0.183149242168968
3
Generated trajectory
Li      0.006224060357015      0.083165488968164      0.186446613299827
Li      2.562158163258434      0.122001741863780      0.092015792862368
Li      1.322705825336977      2.250044441807054      0.189387271888285
3
Generated trajectory
Li      0.071715705473680      0.026780350299391      0.042923971720737
Li      2.459997747995556      0.106934969310762      0.065288901215834
Li      1.322801896169405      2.112307648888182      0.059136742090866
3
Generated trajectory
Li      0.047184799788668     -0.011829490451918     -0.037115795693392
Li      2.512140104241085      0.072878797663353     -0.013973619289183
Li      1.312632462248465      2.148326394456824      0.100728942094698
3
Generated trajectory
Li     -0.027127129338294      0.013921245126363     -0.035170592483973
Li      2.428740241173712      0.074643041874678      0.056257508829174
Li      1.228517215669443      2.235665581267804      0.082439841634706
3
Generated trajectory
Li     -0.045819843424033      0.058435282052375     -0.006741742151239
Li      2.456284762430652      0.070510815995995      0.088081056951971
Li      1.291489112063171      2.224258521851190      0.118776365502259
3
Generated trajectory
Li      0.027104451184894      0.006879886341581     -0.019505741852979
Li      2.433977303644574     -0.056875647167306      0.120448003088503
Li      1.289042411341399      2.123328224201865      0.054043695592875
3
Generated trajectory
Li     -0.007014324501955      0.042282071199505      0.010545536473467
Li      2.493315820873752      0.026955016228573      0.098349805670312
Li      1.252716602955920      2.133877317066335      0.053785958214419
3
Generated trajectory
Li      0.030783537706952      0.030778023547500     -0.013691800723648
Li      2.515991848511143      0.042824076733483      0.014635447710756
Li      1.189595862273247      2.206162477519101     -0.027906269025830
3
Generated trajectory
Li     -0.025665822527433      0.000124182448625      0.069013918441124
Li      2.486902736205148      0.109046352582993     -0.044091936864470
Li      1.216978606925875      2.176530110352320      0.013867545612038
3
Generated trajectory
Li      0.064925609070865     -0.033693726566604     -0.111437733951972
Li      2.475546376183092     -0.025291617380505     -0.042620771719730
Li      1.185799677962506      2.182049945541084     -0.039435576572801
3
Generated trajectory
Li     -0.056972916148281      0.032371039993602     -0.052339798875726
Li      2.462908606945659     -0.107430831529692      0.068397553514717
Li      1.230012407055743      2.124045041211399     -0.071306847890568
3
Generated trajectory
Li     -0.089960205729130     -0.016911405122343      0.073822718586334
Li      2.530711750823889      0.011776077688425      0.023526654060216
Li      1.238813658681274      2.042455433992351      0.032861361189169
3
Generated trajectory
Li     -0.053663212495785     -0.019449976196511     -0.026287376537937
Li      2.445636321627164      0.048216242380981     -0.019552977795830
Li      1.187425607162684      2.192300691948572     -0.067573030811371
3
Generated trajectory
Li     -0.014354587122149     -0.026984576502783      0.023646101427214
Li      2.512599931556522      0.000391434870010     -0.006573578609094
Li      1.238535279833538      2.150161979452494      0.027043437129015
